@<TRIPOS>MOLECULE
diphenylethylene_0_mols1_cent_min
122 125 0 0 0
SMALL
GASTEIGER

@<TRIPOS>ATOM
1 CA1 -9.449943 2.426198 -1.291233 CA1 1 LIG1 907
2 CA2 -10.387063 1.413838 -0.968593 CA2 1 LIG1 908
3 CA3 -9.896820 0.200444 -0.429294 CA3 1 LIG1 907
4 CA4 -8.520242 0.012636 -0.192646 CA4 1 LIG1 907
5 HA5 -10.574683 -0.599639 -0.180252 HA5 1 LIG1 909
6 CA6 -7.606185 1.035246 -0.505467 CA6 1 LIG1 910
7 HA7 -8.168178 -0.918817 0.225827 HA7 1 LIG1 909
8 CA8 -8.073960 2.240418 -1.058098 CA8 1 LIG1 907
9 HA9 -9.760095 3.356834 -1.738202 HA9 1 LIG1 909
10 HA10 -7.375252 3.023449 -1.313526 HA10 1 LIG1 909
11 CA11 1.569195 1.144837 0.298554 CA11 1 LIG1 907
12 C!12 0.697349 0.057690 0.543411 C!12 1 LIG1 911
13 CA13 1.256163 -1.195577 0.884222 CA13 1 LIG1 907
14 CA14 2.651889 -1.362096 0.965878 CA14 1 LIG1 907
15 HA15 0.618567 -2.041579 1.091509 HA15 1 LIG1 909
16 CA16 3.509856 -0.276720 0.707820 CA16 1 LIG1 910
17 HA17 3.064658 -2.328179 1.217519 HA17 1 LIG1 909
18 CA18 2.966724 0.979317 0.378285 CA18 1 LIG1 907
19 HA19 1.175127 2.110197 0.019739 HA19 1 LIG1 909
20 HA20 3.620130 1.814036 0.170066 HA20 1 LIG1 909
21 CA21 7.577025 -0.895542 0.730747 CA21 1 LIG1 910
22 CA22 8.077025 -2.075139 0.152255 CA22 1 LIG1 907
23 CA23 8.470494 0.039553 1.286125 CA23 1 LIG1 907
24 CA24 9.461518 -2.326342 0.137285 CA24 1 LIG1 907
25 HA25 7.396835 -2.789803 -0.288064 HA25 1 LIG1 909
26 CA26 9.857693 -0.214326 1.268564 CA26 1 LIG1 907
27 CA27 10.375957 -1.407762 0.710873 CA27 1 LIG1 908
28 HA28 8.095529 0.952071 1.725983 HA28 1 LIG1 909
29 HA29 9.796833 -3.233749 -0.339142 HA29 1 LIG1 909
30 HA30 10.522120 0.515330 1.703398 HA30 1 LIG1 909
31 NT31 -11.715569 1.558599 -1.229849 NT31 1 LIG1 912
32 NT32 11.720753 -1.620499 0.672299 NT32 1 LIG1 912
33 CT33 -12.392030 0.490171 -1.975132 CT33 1 LIG1 913
34 CT34 -13.361277 -0.298559 -1.075221 CT34 1 LIG1 914
35 HC35 -11.657618 -0.192645 -2.406584 HC35 1 LIG1 915
36 HC36 -12.923634 0.904947 -2.832888 HC36 1 LIG1 915
37 CT37 -14.197234 -1.309268 -1.871741 CT37 1 LIG1 914
38 HC38 -14.036048 0.383377 -0.561199 HC38 1 LIG1 916
39 HC39 -12.809800 -0.816731 -0.291476 HC39 1 LIG1 916
40 CT40 -15.262293 -2.001461 -1.008951 CT40 1 LIG1 914
41 HC41 -13.538631 -2.055506 -2.318357 HC41 1 LIG1 916
42 HC42 -14.687442 -0.794171 -2.698892 HC42 1 LIG1 916
43 CT43 -12.287500 2.881116 -1.523611 CT43 1 LIG1 913
44 CT44 -13.783069 3.008967 -1.178459 CT44 1 LIG1 914
45 HC45 -12.108857 3.136731 -2.569585 HC45 1 LIG1 915
46 HC46 -11.765899 3.627465 -0.922363 HC46 1 LIG1 915
47 CT47 -14.310267 4.433698 -1.397297 CT47 1 LIG1 914
48 HC48 -13.934970 2.728302 -0.135373 HC48 1 LIG1 916
49 HC49 -14.378732 2.325112 -1.782590 HC49 1 LIG1 916
50 CT50 -15.800016 4.568765 -1.049915 CT50 1 LIG1 914
51 HC51 -14.151443 4.720203 -2.437829 HC51 1 LIG1 916
52 HC52 -13.732328 5.133061 -0.791295 HC52 1 LIG1 916
53 CT53 12.576388 -0.548366 0.150688 CT53 1 LIG1 913
54 CT54 13.426499 0.094067 1.262093 CT54 1 LIG1 914
55 HC55 11.968756 0.219142 -0.331775 HC55 1 LIG1 915
56 HC56 13.220910 -0.931463 -0.641156 HC56 1 LIG1 915
57 CT57 14.457861 1.078142 0.693660 CT57 1 LIG1 914
58 HC58 13.953542 -0.671918 1.828302 HC58 1 LIG1 916
59 HC59 12.784869 0.605381 1.978804 HC59 1 LIG1 916
60 CT60 15.359609 1.684311 1.778263 CT60 1 LIG1 914
61 HC61 13.945407 1.875013 0.153572 HC61 1 LIG1 916
62 HC62 15.077579 0.559471 -0.038790 HC62 1 LIG1 916
63 CT63 12.253863 -2.954293 0.358447 CT63 1 LIG1 913
64 CT64 13.676894 -3.215608 0.884857 CT64 1 LIG1 914
65 HC65 12.207635 -3.124356 -0.718343 HC65 1 LIG1 915
66 HC66 11.606374 -3.699367 0.823545 HC66 1 LIG1 915
67 CT67 14.128294 -4.660078 0.630066 CT67 1 LIG1 914
68 HC68 13.707855 -3.016269 1.956648 HC68 1 LIG1 916
69 HC69 14.391921 -2.541665 0.413989 HC69 1 LIG1 916
70 CT70 15.554191 -4.925619 1.133331 CT70 1 LIG1 914
71 HC71 14.075477 -4.872619 -0.438734 HC71 1 LIG1 916
72 HC72 13.434742 -5.346336 1.118878 HC72 1 LIG1 916
73 CT73 -16.323809 5.995198 -1.266119 CT73 1 LIG1 914
74 HC74 -15.959120 4.277535 -0.010496 HC74 1 LIG1 916
75 HC75 -16.379629 3.871587 -1.656817 HC75 1 LIG1 916
76 CT76 -17.810918 6.133200 -0.921465 CT76 1 LIG1 917
77 HC77 -16.165967 6.289648 -2.304664 HC77 1 LIG1 916
78 HC78 -15.748389 6.693163 -0.656316 HC78 1 LIG1 916
79 HC79 -18.422391 5.482023 -1.546736 HC79 1 LIG1 916
80 HC80 -18.151828 7.157300 -1.075674 HC80 1 LIG1 916
81 HC81 -18.002104 5.874212 0.120537 HC81 1 LIG1 916
82 CT82 -16.118493 -2.988972 -1.813877 CT82 1 LIG1 914
83 HC83 -15.909527 -1.246799 -0.559209 HC83 1 LIG1 916
84 HC84 -14.778785 -2.523990 -0.182275 HC84 1 LIG1 916
85 CT85 -17.197237 -3.661704 -0.957553 CT85 1 LIG1 917
86 HC86 -15.477998 -3.754419 -2.254143 HC86 1 LIG1 916
87 HC87 -16.594552 -2.468342 -2.646140 HC87 1 LIG1 916
88 HC88 -16.754112 -4.218256 -0.131159 HC88 1 LIG1 916
89 HC89 -17.785712 -4.361905 -1.551135 HC89 1 LIG1 916
90 HC90 -17.883076 -2.925519 -0.536794 HC90 1 LIG1 916
91 CT91 16.449952 2.594026 1.194452 CT91 1 LIG1 914
92 HC92 15.829084 0.882426 2.350099 HC92 1 LIG1 916
93 HC93 14.749791 2.249791 2.484287 HC93 1 LIG1 916
94 CT94 17.362425 3.178334 2.278255 CT94 1 LIG1 917
95 HC95 15.989124 3.407272 0.632070 HC95 1 LIG1 916
96 HC96 17.055944 2.031438 0.482759 HC96 1 LIG1 916
97 HC97 16.796845 3.791466 2.980049 HC97 1 LIG1 916
98 HC98 18.138823 3.805923 1.840167 HC98 1 LIG1 916
99 HC99 17.855645 2.388765 2.845849 HC99 1 LIG1 916
100 CT100 15.996346 -6.377733 0.906870 CT100 1 LIG1 914
101 HC101 15.612124 -4.690546 2.197257 HC101 1 LIG1 916
102 HC102 16.248702 -4.251177 0.629942 HC102 1 LIG1 916
103 CT103 17.420671 -6.639465 1.408179 CT103 1 LIG1 917
104 HC104 15.938173 -6.620060 -0.155188 HC104 1 LIG1 916
105 HC105 15.306485 -7.052988 1.414753 HC105 1 LIG1 916
106 HC106 18.143259 -6.007498 0.891177 HC106 1 LIG1 916
107 HC107 17.707515 -7.677791 1.240500 HC107 1 LIG1 916
108 HC108 17.505859 -6.439914 2.476763 HC108 1 LIG1 916
109 CA109 -3.567976 0.528793 0.098641 CA109 1 LIG1 910
110 CA110 -2.956423 -0.701624 -0.203697 CA110 1 LIG1 907
111 CA111 -1.565745 -0.856576 -0.045226 CA111 1 LIG1 907
112 HA112 -3.550995 -1.525733 -0.569268 HA112 1 LIG1 909
113 C!113 -0.766092 0.216724 0.412423 C!113 1 LIG1 911
114 HA114 -1.117053 -1.803712 -0.303546 HA114 1 LIG1 909
115 CA115 -1.392576 1.447422 0.716592 CA115 1 LIG1 907
116 CA116 -2.784389 1.602537 0.561476 CA116 1 LIG1 907
117 HA117 -3.249405 2.549163 0.793448 HA117 1 LIG1 909
118 HA118 -0.813103 2.282587 1.079368 HA118 1 LIG1 909
119 CZ119 -6.182813 0.850056 -0.284393 CZ119 1 LIG1 918
120 CZ120 -4.995067 0.701795 -0.106408 CZ120 1 LIG1 918
121 CZ121 4.947671 -0.477886 0.727265 CZ121 1 LIG1 918
122 CZ122 6.144158 -0.659347 0.733835 CZ122 1 LIG1 918
@<TRIPOS>BOND
1 1 2 1
2 1 8 1
3 1 9 1
4 2 3 1
5 2 31 1
6 3 4 1
7 3 5 1
8 4 6 1
9 4 7 1
10 6 8 1
11 6 119 1
12 8 10 1
13 11 12 1
14 11 18 1
15 11 19 1
16 12 13 1
17 12 113 1
18 13 14 1
19 13 15 1
20 14 16 1
21 14 17 1
22 16 18 1
23 16 121 1
24 18 20 1
25 21 22 1
26 21 23 1
27 21 122 1
28 22 24 1
29 22 25 1
30 23 26 1
31 23 28 1
32 24 27 1
33 24 29 1
34 26 27 1
35 26 30 1
36 27 32 1
37 31 33 1
38 31 43 1
39 32 53 1
40 32 63 1
41 33 34 1
42 33 35 1
43 33 36 1
44 34 37 1
45 34 38 1
46 34 39 1
47 37 40 1
48 37 41 1
49 37 42 1
50 40 82 1
51 40 83 1
52 40 84 1
53 43 44 1
54 43 45 1
55 43 46 1
56 44 47 1
57 44 48 1
58 44 49 1
59 47 50 1
60 47 51 1
61 47 52 1
62 50 73 1
63 50 74 1
64 50 75 1
65 53 54 1
66 53 55 1
67 53 56 1
68 54 57 1
69 54 58 1
70 54 59 1
71 57 60 1
72 57 61 1
73 57 62 1
74 60 91 1
75 60 92 1
76 60 93 1
77 63 64 1
78 63 65 1
79 63 66 1
80 64 67 1
81 64 68 1
82 64 69 1
83 67 70 1
84 67 71 1
85 67 72 1
86 70 100 1
87 70 101 1
88 70 102 1
89 73 76 1
90 73 77 1
91 73 78 1
92 76 79 1
93 76 80 1
94 76 81 1
95 82 85 1
96 82 86 1
97 82 87 1
98 85 88 1
99 85 89 1
100 85 90 1
101 91 94 1
102 91 95 1
103 91 96 1
104 94 97 1
105 94 98 1
106 94 99 1
107 100 103 1
108 100 104 1
109 100 105 1
110 103 106 1
111 103 107 1
112 103 108 1
113 109 110 1
114 109 116 1
115 109 120 1
116 110 111 1
117 110 112 1
118 111 113 1
119 111 114 1
120 113 115 1
121 115 116 1
122 115 118 1
123 116 117 1
124 119 120 1
125 121 122 1
