@<TRIPOS>MOLECULE
*****
 122 125 0 0 0
SMALL
GASTEIGER

@<TRIPOS>ATOM
      1 C          -8.9704    4.4465   -0.1919 C.ar    1  LIG1       -0.0395
      2 C          -9.7362    3.2584   -0.3272 C.ar    1  LIG1        0.0297
      3 C          -9.0356    2.0347   -0.3313 C.ar    1  LIG1       -0.0395
      4 C          -7.6428    2.0033   -0.2263 C.ar    1  LIG1       -0.0446
      5 H          -9.5568    1.0903   -0.4342 H       1  LIG1        0.0636
      6 C          -6.9131    3.1816   -0.0914 C.ar    1  LIG1        0.0254
      7 H          -7.1400    1.0270   -0.2412 H       1  LIG1        0.0630
      8 C          -7.5871    4.3959   -0.0791 C.ar    1  LIG1       -0.0446
      9 H          -9.4044    5.4481   -0.2025 H       1  LIG1        0.0636
     10 H          -7.0568    5.3215    0.0041 H       1  LIG1        0.0630
     11 C           2.2444    3.5452    0.6821 C.ar    1  LIG1       -0.0529
     12 C           1.3783    2.4357    0.5797 C.ar    1  LIG1       -0.0178
     13 C           1.9447    1.1481    0.6076 C.ar    1  LIG1       -0.0529
     14 C           3.3276    0.9868    0.7180 C.ar    1  LIG1       -0.0457
     15 H           1.3456    0.2530    0.5425 H       1  LIG1        0.0624
     16 C           4.1654    2.0865    0.8107 C.ar    1  LIG1        0.0253
     17 H           3.7618   -0.0209    0.7032 H       1  LIG1        0.0630
     18 C           3.6165    3.3618    0.7905 C.ar    1  LIG1       -0.0457
     19 H           1.9137    4.5732    0.6892 H       1  LIG1        0.0624
     20 H           4.2249    4.2315    0.8470 H       1  LIG1        0.0630
     21 C           8.1711    1.4588    1.1177 C.ar    1  LIG1        0.0254
     22 C           8.6773    0.1611    1.1525 C.ar    1  LIG1       -0.0446
     23 C           9.0448    2.5338    1.1797 C.ar    1  LIG1       -0.0446
     24 C          10.0526   -0.0587    1.2757 C.ar    1  LIG1       -0.0395
     25 H           7.9724   -0.6912    1.0904 H       1  LIG1        0.0630
     26 C          10.4166    2.3232    1.2820 C.ar    1  LIG1       -0.0395
     27 C          10.9570    1.0234    1.3254 C.ar    1  LIG1        0.0297
     28 H           8.6542    3.5542    1.1433 H       1  LIG1        0.0630
     29 H          10.3940   -1.0856    1.3238 H       1  LIG1        0.0636
     30 H          11.0403    3.1888    1.3100 H       1  LIG1        0.0636
     31 N         -11.1733    3.3027   -0.4458 N.pl3   1  LIG1       -0.3299
     32 N          12.3808    0.8040    1.4357 N.pl3   1  LIG1       -0.3299
     33 C         -11.8738    1.9961   -0.5826 C.3     1  LIG1        0.0122
     34 C         -13.3984    1.9062   -0.6994 C.3     1  LIG1       -0.0372
     35 H         -11.5926    1.3726    0.2840 H       1  LIG1        0.0464
     36 H         -11.4710    1.4723   -1.4672 H       1  LIG1        0.0464
     37 C         -13.8951    0.4552   -0.8213 C.3     1  LIG1       -0.0516
     38 H         -13.7673    2.4154   -1.6198 H       1  LIG1        0.0280
     39 H         -13.8658    2.3376    0.2020 H       1  LIG1        0.0280
     40 C         -15.4272    0.4186   -0.9641 C.3     1  LIG1       -0.0533
     41 H         -13.5930   -0.1355    0.0764 H       1  LIG1        0.0266
     42 H         -13.4331   -0.0127   -1.6900 H       1  LIG1        0.0266
     43 C         -11.7932    4.6568   -0.4333 C.3     1  LIG1        0.0122
     44 C         -13.3046    4.8860   -0.5569 C.3     1  LIG1       -0.0372
     45 H         -11.3094    5.2278   -1.2807 H       1  LIG1        0.0464
     46 H         -11.5054    5.1260    0.5293 H       1  LIG1        0.0464
     47 C         -13.6560    6.3856   -0.4991 C.3     1  LIG1       -0.0516
     48 H         -13.8653    4.3946    0.2542 H       1  LIG1        0.0280
     49 H         -13.6681    4.5052   -1.5181 H       1  LIG1        0.0280
     50 C         -15.1759    6.5885   -0.6387 C.3     1  LIG1       -0.0533
     51 H         -13.1618    6.9224   -1.3289 H       1  LIG1        0.0266
     52 H         -13.2858    6.8168    0.4676 H       1  LIG1        0.0266
     53 C          13.2134    2.0187    1.5253 C.3     1  LIG1        0.0122
     54 C          14.7393    1.9874    1.7417 C.3     1  LIG1       -0.0372
     55 H          12.8389    2.6541    2.3445 H       1  LIG1        0.0464
     56 H          13.0249    2.5988    0.5967 H       1  LIG1        0.0464
     57 C          15.2959    3.4302    1.8242 C.3     1  LIG1       -0.0516
     58 H          15.2320    1.4766    0.8812 H       1  LIG1        0.0280
     59 H          14.9815    1.4734    2.6926 H       1  LIG1        0.0280
     60 C          16.8263    3.4555    1.9756 C.3     1  LIG1       -0.0533
     61 H          14.7972    3.9461    2.6616 H       1  LIG1        0.0266
     62 H          15.0229    3.9833    0.9129 H       1  LIG1        0.0266
     63 C          12.8430   -0.6148    1.4462 C.3     1  LIG1        0.0122
     64 C          14.3366   -0.9738    1.4937 C.3     1  LIG1       -0.0372
     65 H          12.4562   -1.0805    0.5434 H       1  LIG1        0.0464
     66 H          12.3402   -1.1182    2.3081 H       1  LIG1        0.0464
     67 C          14.5717   -2.4938    1.4739 C.3     1  LIG1       -0.0516
     68 H          14.8163   -0.5999    2.3889 H       1  LIG1        0.0280
     69 H          14.8403   -0.5636    0.6193 H       1  LIG1        0.0280
     70 C          16.0811   -2.8124    1.5656 C.3     1  LIG1       -0.0533
     71 H          14.1127   -2.9293    0.5333 H       1  LIG1        0.0266
     72 H          14.0433   -2.9592    2.3330 H       1  LIG1        0.0266
     73 C         -15.5718    8.0684   -0.5931 C.3     1  LIG1       -0.0559
     74 H         -15.7028    6.0281    0.1806 H       1  LIG1        0.0265
     75 H         -15.5192    6.1511   -1.5669 H       1  LIG1        0.0265
     76 C         -17.0939    8.2461   -0.7156 C.3     1  LIG1       -0.0653
     77 H         -15.0712    8.6137   -1.3903 H       1  LIG1        0.0263
     78 H         -15.2222    8.5350    0.3375 H       1  LIG1        0.0263
     79 H         -17.4778    7.8424   -1.6746 H       1  LIG1        0.0230
     80 H         -17.3404    9.3300   -0.6529 H       1  LIG1        0.0230
     81 H         -17.6180    7.7122    0.0957 H       1  LIG1        0.0230
     82 C         -15.9974   -1.0061   -1.0836 C.3     1  LIG1       -0.0559
     83 H         -15.7130    1.0361   -1.8603 H       1  LIG1        0.0265
     84 H         -15.9094    0.9020   -0.0835 H       1  LIG1        0.0265
     85 C         -17.5228   -0.9856   -1.2063 C.3     1  LIG1       -0.0653
     86 H         -15.7031   -1.6130   -0.2186 H       1  LIG1        0.0263
     87 H         -15.5757   -1.5132   -1.9685 H       1  LIG1        0.0263
     88 H         -17.9716   -0.5016   -0.3095 H       1  LIG1        0.0230
     89 H         -17.9523   -2.0099   -1.3072 H       1  LIG1        0.0230
     90 H         -17.8332   -0.4060   -2.0963 H       1  LIG1        0.0230
     91 C          17.3661    4.8871    2.0516 C.3     1  LIG1       -0.0559
     92 H          17.2804    2.9218    1.1266 H       1  LIG1        0.0265
     93 H          17.1249    2.9129    2.9085 H       1  LIG1        0.0265
     94 C          18.8738    4.9123    2.2051 C.3     1  LIG1       -0.0653
     95 H          16.9021    5.4085    2.9310 H       1  LIG1        0.0263
     96 H          17.0988    5.4445    1.1289 H       1  LIG1        0.0263
     97 H          19.1841    4.3685    3.1267 H       1  LIG1        0.0230
     98 H          19.2591    5.9586    2.2994 H       1  LIG1        0.0230
     99 H          19.3336    4.4204    1.3241 H       1  LIG1        0.0230
    100 C          16.3588   -4.3272    1.5487 C.3     1  LIG1       -0.0559
    101 H          16.5054   -2.3548    2.4631 H       1  LIG1        0.0265
    102 H          16.5836   -2.3345    0.7084 H       1  LIG1        0.0265
    103 C          17.8702   -4.6122    1.6420 C.3     1  LIG1       -0.0653
    104 H          15.9672   -4.7872    0.6043 H       1  LIG1        0.0263
    105 H          15.8420   -4.8192    2.4032 H       1  LIG1        0.0263
    106 H          18.4233   -4.1345    0.7627 H       1  LIG1        0.0230
    107 H          18.0246   -5.7060    1.6136 H       1  LIG1        0.0230
    108 H          18.2952   -4.2027    2.5898 H       1  LIG1        0.0230
    109 C          -2.8694    2.9247    0.2363 C.ar    1  LIG1        0.0253
    110 C          -2.3094    1.6558    0.2362 C.ar    1  LIG1       -0.0457
    111 C          -0.9258    1.5029    0.3451 C.ar    1  LIG1       -0.0529
    112 H          -2.9648    0.7766    0.1279 H       1  LIG1        0.0630
    113 C          -0.0776    2.6168    0.4687 C.ar    1  LIG1       -0.0178
    114 H          -0.5544    0.4756    0.3033 H       1  LIG1        0.0624
    115 C          -0.6658    3.8932    0.4758 C.ar    1  LIG1       -0.0529
    116 C          -2.0490    4.0480    0.3634 C.ar    1  LIG1       -0.0457
    117 H          -2.5131    5.0368    0.3561 H       1  LIG1        0.0630
    118 H          -0.0950    4.8029    0.5759 H       1  LIG1        0.0624
    119 C          -5.4844    3.1300    0.0264 C.1     1  LIG1       -0.0610
    120 C          -4.2955    3.0585    0.1227 C.1     1  LIG1       -0.0610
    121 C           5.5822    1.8846    0.9194 C.1     1  LIG1       -0.0610
    122 C           6.7558    1.7003    1.0093 C.1     1  LIG1       -0.0610
@<TRIPOS>BOND
     1     1     2   ar
     2     2     3   ar
     3     3     4   ar
     4     3     5    1
     5     4     6   ar
     6     4     7    1
     7     6     8   ar
     8     1     8   ar
     9     1     9    1
    10     8    10    1
    11    11    12   ar
    12    11    18   ar
    13    11    19    1
    14    12    13   ar
    15    13    14   ar
    16    13    15    1
    17    14    16   ar
    18    14    17    1
    19    16    18   ar
    20    18    20    1
    21    21    22   ar
    22    22    24   ar
    23    22    25    1
    24    23    21   ar
    25    23    26   ar
    26    23    28    1
    27    24    27   ar
    28    24    29    1
    29    26    30    1
    30    27    26   ar
    31     2    31    1
    32    27    32    1
    33    31    33    1
    34    33    34    1
    35    33    35    1
    36    33    36    1
    37    34    37    1
    38    34    38    1
    39    34    39    1
    40    37    40    1
    41    37    41    1
    42    37    42    1
    43    31    43    1
    44    43    44    1
    45    43    45    1
    46    43    46    1
    47    44    47    1
    48    44    48    1
    49    44    49    1
    50    47    50    1
    51    47    51    1
    52    47    52    1
    53    32    53    1
    54    53    54    1
    55    53    55    1
    56    53    56    1
    57    54    57    1
    58    54    58    1
    59    54    59    1
    60    57    60    1
    61    57    61    1
    62    57    62    1
    63    32    63    1
    64    63    64    1
    65    63    65    1
    66    63    66    1
    67    64    67    1
    68    64    68    1
    69    64    69    1
    70    67    70    1
    71    67    71    1
    72    67    72    1
    73    50    73    1
    74    50    74    1
    75    50    75    1
    76    73    76    1
    77    73    77    1
    78    73    78    1
    79    76    79    1
    80    76    80    1
    81    76    81    1
    82    40    82    1
    83    40    83    1
    84    40    84    1
    85    82    85    1
    86    82    86    1
    87    82    87    1
    88    85    88    1
    89    85    89    1
    90    85    90    1
    91    60    91    1
    92    60    92    1
    93    60    93    1
    94    91    94    1
    95    91    95    1
    96    91    96    1
    97    94    97    1
    98    94    98    1
    99    94    99    1
   100    70   100    1
   101    70   101    1
   102    70   102    1
   103   100   103    1
   104   100   104    1
   105   100   105    1
   106   103   106    1
   107   103   107    1
   108   103   108    1
   109   109   110   ar
   110   110   111   ar
   111   110   112    1
   112   111   113   ar
   113   111   114    1
   114   113   115   ar
   115   109   116   ar
   116   116   115   ar
   117   116   117    1
   118   115   118    1
   119   113    12    1
   120     6   119    1
   121   119   120    3
   122   120   109    1
   123    16   121    1
   124   121   122    3
   125   122    21    1
