@<TRIPOS>MOLECULE
*****
 126 129 0 0 0
SMALL
GASTEIGER

@<TRIPOS>ATOM
      1 C          -8.8268    4.2355   -0.2020 C.ar    1  LIG1       -0.0401
      2 C          -9.6832    3.1067   -0.3302 C.ar    1  LIG1        0.0297
      3 C          -9.0583    1.8316   -0.3378 C.ar    1  LIG1       -0.0401
      4 C          -7.6696    1.6951   -0.2243 C.ar    1  LIG1       -0.0528
      5 H          -9.6275    0.9204   -0.4309 H       1  LIG1        0.0636
      6 C          -6.8304    2.8111   -0.0987 C.ar    1  LIG1       -0.0249
      7 H          -7.2450    0.6987   -0.2355 H       1  LIG1        0.0624
      8 C          -7.4280    4.0891   -0.0889 C.ar    1  LIG1       -0.0528
      9 H          -9.2219    5.2402   -0.1875 H       1  LIG1        0.0636
     10 H          -6.8297    4.9824    0.0056 H       1  LIG1        0.0624
     11 C           2.3391    3.8395    0.6960 C.ar    1  LIG1       -0.0535
     12 C           1.4662    2.7261    0.5994 C.ar    1  LIG1       -0.0178
     13 C           2.0721    1.4404    0.6190 C.ar    1  LIG1       -0.0535
     14 C           3.4697    1.2839    0.7292 C.ar    1  LIG1       -0.0540
     15 H           1.4862    0.5405    0.5514 H       1  LIG1        0.0624
     16 C           4.3184    2.4049    0.8239 C.ar    1  LIG1       -0.0250
     17 H           3.8697    0.2815    0.7389 H       1  LIG1        0.0624
     18 C           3.7279    3.6767    0.8051 C.ar    1  LIG1       -0.0540
     19 H           1.9755    4.8505    0.6887 H       1  LIG1        0.0624
     20 H           4.3502    4.5609    0.8756 H       1  LIG1        0.0624
     21 C           8.0520    1.1007    1.0974 C.ar    1  LIG1       -0.0249
     22 C           8.6665   -0.1619    1.1191 C.ar    1  LIG1       -0.0528
     23 C           8.8800    2.2377    1.1897 C.ar    1  LIG1       -0.0528
     24 C          10.0594   -0.2965    1.2288 C.ar    1  LIG1       -0.0401
     25 H           8.0618   -1.0578    1.0503 H       1  LIG1        0.0624
     26 C          10.2760    2.1112    1.3001 C.ar    1  LIG1       -0.0401
     27 C          10.9083    0.8375    1.3230 C.ar    1  LIG1        0.0297
     28 H           8.4676    3.2339    1.1783 H       1  LIG1        0.0624
     29 H          10.4542   -1.3009    1.2390 H       1  LIG1        0.0636
     30 H          10.8460    3.0248    1.3661 H       1  LIG1        0.0636
     31 C           5.8228    2.3194    0.9440 C.2     1  LIG1       -0.0540
     32 C           6.5454    1.1688    0.9768 C.2     1  LIG1       -0.0540
     33 H           6.3456    3.2635    1.0076 H       1  LIG1        0.0624
     34 H           6.0245    0.2225    0.9134 H       1  LIG1        0.0624
     35 N         -11.1426    3.2426   -0.4494 N.pl3   1  LIG1       -0.3299
     36 N          12.3675    0.7022    1.4385 N.pl3   1  LIG1       -0.3299
     37 C         -11.9212    1.9770   -0.5818 C.3     1  LIG1        0.0122
     38 C         -13.4589    1.9481   -0.7110 C.3     1  LIG1       -0.0372
     39 H         -11.6990    1.3574    0.3147 H       1  LIG1        0.0464
     40 H         -11.5461    1.4523   -1.4880 H       1  LIG1        0.0464
     41 C         -14.0011    0.5136   -0.8357 C.3     1  LIG1       -0.0516
     42 H         -13.7736    2.4625   -1.6364 H       1  LIG1        0.0280
     43 H         -13.9246    2.3615    0.2017 H       1  LIG1        0.0280
     44 C         -15.5351    0.5234   -0.9611 C.3     1  LIG1       -0.0533
     45 H         -13.7113   -0.0729    0.0638 H       1  LIG1        0.0266
     46 H         -13.5635    0.0286   -1.7359 H       1  LIG1        0.0266
     47 C         -11.7039    4.6240   -0.4267 C.3     1  LIG1        0.0122
     48 C         -13.2222    4.8681   -0.5510 C.3     1  LIG1       -0.0372
     49 H         -11.2414    5.1903   -1.2645 H       1  LIG1        0.0464
     50 H         -11.4007    5.0958    0.5335 H       1  LIG1        0.0464
     51 C         -13.6123    6.3549   -0.5040 C.3     1  LIG1       -0.0516
     52 H         -13.7419    4.4052    0.3060 H       1  LIG1        0.0280
     53 H         -13.5740    4.5050   -1.5329 H       1  LIG1        0.0280
     54 C         -15.1418    6.5010   -0.6359 C.3     1  LIG1       -0.0533
     55 H         -13.1167    6.8984   -1.3379 H       1  LIG1        0.0266
     56 H         -13.2816    6.7971    0.4612 H       1  LIG1        0.0266
     57 C          13.1539    1.9598    1.5452 C.3     1  LIG1        0.0122
     58 C          14.6899    1.9655    1.6962 C.3     1  LIG1       -0.0372
     59 H          12.7756    2.5092    2.4354 H       1  LIG1        0.0464
     60 H          12.9432    2.5613    0.6335 H       1  LIG1        0.0464
     61 C          15.2327    3.4035    1.7923 C.3     1  LIG1       -0.0516
     62 H          15.1660    1.5173    0.8052 H       1  LIG1        0.0280
     63 H          14.9812    1.4630    2.6374 H       1  LIG1        0.0280
     64 C          16.7632    3.4193    1.9454 C.3     1  LIG1       -0.0533
     65 H          14.7764    3.9111    2.6706 H       1  LIG1        0.0266
     66 H          14.9554    3.9641    0.8724 H       1  LIG1        0.0266
     67 C          12.9164   -0.6819    1.4379 C.3     1  LIG1        0.0122
     68 C          14.4296   -0.9733    1.5296 C.3     1  LIG1       -0.0372
     69 H          12.5877   -1.1651    0.4915 H       1  LIG1        0.0464
     70 H          12.4585   -1.2205    2.2964 H       1  LIG1        0.0464
     71 C          14.7069   -2.4883    1.5003 C.3     1  LIG1       -0.0516
     72 H          14.8343   -0.6071    2.4906 H       1  LIG1        0.0280
     73 H          14.9528   -0.5474    0.6532 H       1  LIG1        0.0280
     74 C          16.2134   -2.7872    1.5908 C.3     1  LIG1       -0.0533
     75 H          14.3093   -2.9175    0.5543 H       1  LIG1        0.0266
     76 H          14.1900   -2.9739    2.3572 H       1  LIG1        0.0266
     77 C         -15.5897    7.9664   -0.5910 C.3     1  LIG1       -0.0559
     78 H         -15.6360    5.9494    0.1948 H       1  LIG1        0.0265
     79 H         -15.4709    6.0539   -1.6005 H       1  LIG1        0.0265
     80 C         -17.1087    8.0811   -0.7247 C.3     1  LIG1       -0.0653
     81 H         -15.1138    8.5286   -1.4233 H       1  LIG1        0.0263
     82 H         -15.2800    8.4223    0.3741 H       1  LIG1        0.0263
     83 H         -17.4477    7.6513   -1.6917 H       1  LIG1        0.0230
     84 H         -17.4094    9.1496   -0.6888 H       1  LIG1        0.0230
     85 H         -17.6142    7.5442    0.1066 H       1  LIG1        0.0230
     86 C         -16.1007   -0.8959   -1.0901 C.3     1  LIG1       -0.0559
     87 H         -15.8267    1.1124   -1.8591 H       1  LIG1        0.0265
     88 H         -15.9742    1.0085   -0.0611 H       1  LIG1        0.0265
     89 C         -17.6234   -0.8742   -1.2134 C.3     1  LIG1       -0.0653
     90 H         -15.8229   -1.4919   -0.1938 H       1  LIG1        0.0263
     91 H         -15.6758   -1.3868   -1.9925 H       1  LIG1        0.0263
     92 H         -18.0790   -0.4080   -0.3137 H       1  LIG1        0.0230
     93 H         -18.0061   -1.9127   -1.3058 H       1  LIG1        0.0230
     94 H         -17.9318   -0.3021   -2.1146 H       1  LIG1        0.0230
     95 C          17.2939    4.8565    2.0427 C.3     1  LIG1       -0.0559
     96 H          17.2272    2.9174    1.0676 H       1  LIG1        0.0265
     97 H          17.0479    2.8624    2.8654 H       1  LIG1        0.0265
     98 C          18.8133    4.8832    2.1955 C.3     1  LIG1       -0.0653
     99 H          16.8390    5.3634    2.9214 H       1  LIG1        0.0263
    100 H          17.0185    5.4192    1.1242 H       1  LIG1        0.0263
    101 H          19.1201    4.3490    3.1199 H       1  LIG1        0.0230
    102 H          19.1621    5.9358    2.2633 H       1  LIG1        0.0230
    103 H          19.3002    4.4054    1.3188 H       1  LIG1        0.0230
    104 C          16.4811   -4.2987    1.5609 C.3     1  LIG1       -0.0559
    105 H          16.6173   -2.3642    2.5371 H       1  LIG1        0.0265
    106 H          16.7369   -2.3073    0.7344 H       1  LIG1        0.0265
    107 C          17.9749   -4.6046    1.6505 C.3     1  LIG1       -0.0653
    108 H          16.0859   -4.7292    0.6151 H       1  LIG1        0.0263
    109 H          15.9661   -4.7861    2.4172 H       1  LIG1        0.0263
    110 H          18.5163   -4.1513    0.7931 H       1  LIG1        0.0230
    111 H          18.1321   -5.7041    1.6262 H       1  LIG1        0.0230
    112 H          18.3962   -4.2085    2.5990 H       1  LIG1        0.0230
    113 C          -5.3431    2.5682    0.0179 C.2     1  LIG1       -0.0540
    114 C          -4.3946    3.5324    0.1396 C.2     1  LIG1       -0.0540
    115 H          -5.0313    1.5332   -0.0005 H       1  LIG1        0.0624
    116 C          -2.9074    3.2699    0.2546 C.ar    1  LIG1       -0.0250
    117 H          -4.7050    4.5694    0.1565 H       1  LIG1        0.0624
    118 C          -2.3350    1.9807    0.2545 C.ar    1  LIG1       -0.0540
    119 C          -0.9410    1.8042    0.3648 C.ar    1  LIG1       -0.0535
    120 H          -2.9483    1.0976    0.1702 H       1  LIG1        0.0624
    121 C          -0.0582    2.9100    0.4794 C.ar    1  LIG1       -0.0178
    122 H          -0.5772    0.7917    0.3568 H       1  LIG1        0.0624
    123 C          -0.6527    4.1988    0.4778 C.ar    1  LIG1       -0.0535
    124 C          -2.0423    4.3680    0.3682 C.ar    1  LIG1       -0.0540
    125 H          -2.4457    5.3736    0.3721 H       1  LIG1        0.0624
    126 H          -0.0669    5.0957    0.5610 H       1  LIG1        0.0624
@<TRIPOS>BOND
     1    94    89    1
     2    91    86    1
     3    87    44    1
     4    46    41    1
     5    83    80    1
     6    42    38    1
     7    79    54    1
     8    53    48    1
     9    40    37    1
    10    81    77    1
    11    55    51    1
    12    93    89    1
    13    49    47    1
    14    89    86    1
    15    89    92    1
    16    86    44    1
    17    86    90    1
    18    44    41    1
    19    44    88    1
    20    41    38    1
    21    41    45    1
    22    80    84    1
    23    80    77    1
    24    80    85    1
    25    38    37    1
    26    38    43    1
    27    54    77    1
    28    54    51    1
    29    54    78    1
    30    77    82    1
    31    37    35    1
    32    37    39    1
    33    48    51    1
    34    48    47    1
    35    48    52    1
    36    51    56    1
    37    35    47    1
    38    35     2    1
    39     5     3    1
    40    47    50    1
    41     3     2   ar
    42     3     4   ar
    43     2     1   ar
    44     7     4    1
    45     4     6   ar
    46     1     9    1
    47     1     8   ar
    48     6     8   ar
    49     6   113    1
    50     8    10    1
    51   115   113    1
    52   113   114    2
    53   114   117    1
    54   114   116    1
    55   120   118    1
    56   118   116   ar
    57   118   119   ar
    58   116   124   ar
    59   122   119    1
    60   119   121   ar
    61   124   125    1
    62   124   123   ar
    63   123   121   ar
    64   123   126    1
    65   121    12    1
    66    69    67    1
    67    15    13    1
    68    75    71    1
    69    12    13   ar
    70    12    11   ar
    71   108   104    1
    72    13    14   ar
    73    60    57    1
    74    73    68    1
    75    19    11    1
    76    11    18   ar
    77    14    17    1
    78    14    16   ar
    79   106    74    1
    80   110   107    1
    81    18    16   ar
    82    18    20    1
    83    62    58    1
    84    16    31    1
    85    66    61    1
    86    34    32    1
    87    31    32    2
    88    31    33    1
    89    32    21    1
    90    25    22    1
    91    96    64    1
    92    21    22   ar
    93    21    23   ar
    94    22    24   ar
    95   100    95    1
    96    28    23    1
    97    23    26   ar
    98    24    29    1
    99    24    27   ar
   100    26    27   ar
   101    26    30    1
   102   103    98    1
   103    27    36    1
   104    67    36    1
   105    67    68    1
   106    67    70    1
   107    36    57    1
   108    71    68    1
   109    71    74    1
   110    71    76    1
   111    68    72    1
   112    57    58    1
   113    57    59    1
   114   104    74    1
   115   104   107    1
   116   104   109    1
   117    74   105    1
   118   111   107    1
   119   107   112    1
   120    58    61    1
   121    58    63    1
   122    61    64    1
   123    61    65    1
   124    64    95    1
   125    64    97    1
   126    95    98    1
   127    95    99    1
   128    98   102    1
   129    98   101    1
