@<TRIPOS>MOLECULE
*****
     126     129       1
SMALL
NO_CHARGES

@<TRIPOS>ATOM
       1   C1          -8.826800    4.235500   -0.202000   C.2 
       2   C2          -9.683200    3.106700   -0.330200   C.2 
       3   C3          -9.058300    1.831600   -0.337800   C.2 
       4   C4          -7.669600    1.695100   -0.224300   C.2 
       5   H5          -9.627500    0.920400   -0.430900   H   
       6   C6          -6.830400    2.811100   -0.098700   C.2 
       7   H7          -7.245000    0.698700   -0.235500   H   
       8   C8          -7.428000    4.089100   -0.088900   C.2 
       9   H9          -9.221900    5.240200   -0.187500   H   
      10   H10         -6.829700    4.982400    0.005600   H   
      11   C11          2.339100    3.839500    0.696000   C.2 
      12   C12          1.466200    2.726100    0.599400   C.2 
      13   C13          2.072100    1.440400    0.619000   C.2 
      14   C14          3.469700    1.283900    0.729200   C.2 
      15   H15          1.486200    0.540500    0.551400   H   
      16   C16          4.318400    2.404900    0.823900   C.2 
      17   H17          3.869700    0.281500    0.738900   H   
      18   C18          3.727900    3.676700    0.805100   C.2 
      19   H19          1.975500    4.850500    0.688700   H   
      20   H20          4.350200    4.560900    0.875600   H   
      21   C21          8.052000    1.100700    1.097400   C.2 
      22   C22          8.666500   -0.161900    1.119100   C.2 
      23   C23          8.880000    2.237700    1.189700   C.2 
      24   C24         10.059400   -0.296500    1.228800   C.2 
      25   H25          8.061800   -1.057800    1.050300   H   
      26   C26         10.276000    2.111200    1.300100   C.2 
      27   C27         10.908300    0.837500    1.323000   C.2 
      28   H28          8.467600    3.233900    1.178300   H   
      29   H29         10.454200   -1.300900    1.239000   H   
      30   H30         10.846000    3.024800    1.366100   H   
      31   C31          5.822800    2.319400    0.944000   C.2 
      32   C32          6.545400    1.168800    0.976800   C.2 
      33   H33          6.345600    3.263500    1.007600   H   
      34   H34          6.024500    0.222500    0.913400   H   
      35   N35        -11.142600    3.242600   -0.449400   N.3 
      36   N36         12.367500    0.702200    1.438500   N.3 
      37   C37        -11.921200    1.977000   -0.581800   C.3 
      38   C38        -13.458900    1.948100   -0.711000   C.3 
      39   H39        -11.699000    1.357400    0.314700   H   
      40   H40        -11.546100    1.452300   -1.488000   H   
      41   C41        -14.001100    0.513600   -0.835700   C.3 
      42   H42        -13.773600    2.462500   -1.636400   H   
      43   H43        -13.924600    2.361500    0.201700   H   
      44   C44        -15.535100    0.523400   -0.961100   C.3 
      45   H45        -13.711300   -0.072900    0.063800   H   
      46   H46        -13.563500    0.028600   -1.735900   H   
      47   C47        -11.703900    4.624000   -0.426700   C.3 
      48   C48        -13.222200    4.868100   -0.551000   C.3 
      49   H49        -11.241400    5.190300   -1.264500   H   
      50   H50        -11.400700    5.095800    0.533500   H   
      51   C51        -13.612300    6.354900   -0.504000   C.3 
      52   H52        -13.741900    4.405200    0.306000   H   
      53   H53        -13.574000    4.505000   -1.532900   H   
      54   C54        -15.141800    6.501000   -0.635900   C.3 
      55   H55        -13.116700    6.898400   -1.337900   H   
      56   H56        -13.281600    6.797100    0.461200   H   
      57   C57         13.153900    1.959800    1.545200   C.3 
      58   C58         14.689900    1.965500    1.696200   C.3 
      59   H59         12.775600    2.509200    2.435400   H   
      60   H60         12.943200    2.561300    0.633500   H   
      61   C61         15.232700    3.403500    1.792300   C.3 
      62   H62         15.166000    1.517300    0.805200   H   
      63   H63         14.981200    1.463000    2.637400   H   
      64   C64         16.763200    3.419300    1.945400   C.3 
      65   H65         14.776400    3.911100    2.670600   H   
      66   H66         14.955400    3.964100    0.872400   H   
      67   C67         12.916400   -0.681900    1.437900   C.3 
      68   C68         14.429600   -0.973300    1.529600   C.3 
      69   H69         12.587700   -1.165100    0.491500   H   
      70   H70         12.458500   -1.220500    2.296400   H   
      71   C71         14.706900   -2.488300    1.500300   C.3 
      72   H72         14.834300   -0.607100    2.490600   H   
      73   H73         14.952800   -0.547400    0.653200   H   
      74   C74         16.213400   -2.787200    1.590800   C.3 
      75   H75         14.309300   -2.917500    0.554300   H   
      76   H76         14.190000   -2.973900    2.357200   H   
      77   C77        -15.589700    7.966400   -0.591000   C.3 
      78   H78        -15.636000    5.949400    0.194800   H   
      79   H79        -15.470900    6.053900   -1.600500   H   
      80   C80        -17.108700    8.081100   -0.724700   C.3 
      81   H81        -15.113800    8.528600   -1.423300   H   
      82   H82        -15.280000    8.422300    0.374100   H   
      83   H83        -17.447700    7.651300   -1.691700   H   
      84   H84        -17.409400    9.149600   -0.688800   H   
      85   H85        -17.614200    7.544200    0.106600   H   
      86   C86        -16.100700   -0.895900   -1.090100   C.3 
      87   H87        -15.826700    1.112400   -1.859100   H   
      88   H88        -15.974200    1.008500   -0.061100   H   
      89   C89        -17.623400   -0.874200   -1.213400   C.3 
      90   H90        -15.822900   -1.491900   -0.193800   H   
      91   H91        -15.675800   -1.386800   -1.992500   H   
      92   H92        -18.079000   -0.408000   -0.313700   H   
      93   H93        -18.006100   -1.912700   -1.305800   H   
      94   H94        -17.931800   -0.302100   -2.114600   H   
      95   C95         17.293900    4.856500    2.042700   C.3 
      96   H96         17.227200    2.917400    1.067600   H   
      97   H97         17.047900    2.862400    2.865400   H   
      98   C98         18.813300    4.883200    2.195500   C.3 
      99   H99         16.839000    5.363400    2.921400   H   
     100   H100        17.018500    5.419200    1.124200   H   
     101   H101        19.120100    4.349000    3.119900   H   
     102   H102        19.162100    5.935800    2.263300   H   
     103   H103        19.300200    4.405400    1.318800   H   
     104   C104        16.481100   -4.298700    1.560900   C.3 
     105   H105        16.617300   -2.364200    2.537100   H   
     106   H106        16.736900   -2.307300    0.734400   H   
     107   C107        17.974900   -4.604600    1.650500   C.3 
     108   H108        16.085900   -4.729200    0.615100   H   
     109   H109        15.966100   -4.786100    2.417200   H   
     110   H110        18.516300   -4.151300    0.793100   H   
     111   H111        18.132100   -5.704100    1.626200   H   
     112   H112        18.396200   -4.208500    2.599000   H   
     113   C113        -5.343100    2.568200    0.017900   C.2 
     114   C114        -4.394600    3.532400    0.139600   C.2 
     115   H115        -5.031300    1.533200   -0.000500   H   
     116   C116        -2.907400    3.269900    0.254600   C.2 
     117   H117        -4.705000    4.569400    0.156500   H   
     118   C118        -2.335000    1.980700    0.254500   C.2 
     119   C119        -0.941000    1.804200    0.364800   C.2 
     120   H120        -2.948300    1.097600    0.170200   H   
     121   C121        -0.058200    2.910000    0.479400   C.2 
     122   H122        -0.577200    0.791700    0.356800   H   
     123   C123        -0.652700    4.198800    0.477800   C.2 
     124   C124        -2.042300    4.368000    0.368200   C.2 
     125   H125        -2.445700    5.373600    0.372100   H   
     126   H126        -0.066900    5.095700    0.561000   H   

@<TRIPOS>BOND
       1       1       2       1
       2       1       8       1
       3       1       9       1
       4       2       3       1
       5       2      35       1
       6       3       4       1
       7       3       5       1
       8       4       6       1
       9       4       7       1
      10       6       8       1
      11       6     113       1
      12       8      10       1
      13      11      12       1
      14      11      18       1
      15      11      19       1
      16      12      13       1
      17      12     121       1
      18      13      14       1
      19      13      15       1
      20      14      16       1
      21      14      17       1
      22      16      18       1
      23      16      31       1
      24      18      20       1
      25      21      22       1
      26      21      23       1
      27      21      32       1
      28      22      24       1
      29      22      25       1
      30      23      26       1
      31      23      28       1
      32      24      27       1
      33      24      29       1
      34      26      27       1
      35      26      30       1
      36      27      36       1
      37      31      32       1
      38      31      33       1
      39      32      34       1
      40      35      37       1
      41      35      47       1
      42      36      57       1
      43      36      67       1
      44      37      38       1
      45      37      39       1
      46      37      40       1
      47      38      41       1
      48      38      42       1
      49      38      43       1
      50      41      44       1
      51      41      45       1
      52      41      46       1
      53      44      86       1
      54      44      87       1
      55      44      88       1
      56      47      48       1
      57      47      49       1
      58      47      50       1
      59      48      51       1
      60      48      52       1
      61      48      53       1
      62      51      54       1
      63      51      55       1
      64      51      56       1
      65      54      77       1
      66      54      78       1
      67      54      79       1
      68      57      58       1
      69      57      59       1
      70      57      60       1
      71      58      61       1
      72      58      62       1
      73      58      63       1
      74      61      64       1
      75      61      65       1
      76      61      66       1
      77      64      95       1
      78      64      96       1
      79      64      97       1
      80      67      68       1
      81      67      69       1
      82      67      70       1
      83      68      71       1
      84      68      72       1
      85      68      73       1
      86      71      74       1
      87      71      75       1
      88      71      76       1
      89      74     104       1
      90      74     105       1
      91      74     106       1
      92      77      80       1
      93      77      81       1
      94      77      82       1
      95      80      83       1
      96      80      84       1
      97      80      85       1
      98      86      89       1
      99      86      90       1
     100      86      91       1
     101      89      92       1
     102      89      93       1
     103      89      94       1
     104      95      98       1
     105      95      99       1
     106      95     100       1
     107      98     101       1
     108      98     102       1
     109      98     103       1
     110     104     107       1
     111     104     108       1
     112     104     109       1
     113     107     110       1
     114     107     111       1
     115     107     112       1
     116     113     114       1
     117     113     115       1
     118     114     116       1
     119     114     117       1
     120     116     118       1
     121     116     124       1
     122     118     119       1
     123     118     120       1
     124     119     121       1
     125     119     122       1
     126     121     123       1
     127     123     124       1
     128     123     126       1
     129     124     125       1

@<TRIPOS>SUBSTRUCTURE
       1            ****       1
