@<TRIPOS>MOLECULE
diphenylstilbenen2_0_mols1_cent_min
126 129 0 0 0
SMALL
GASTEIGER

@<TRIPOS>ATOM
1 CA1 -9.097445 1.356367 -0.334603 CA1 1 LIG1 907
2 CA2 -9.896315 0.195396 -0.220786 CA2 1 LIG1 908
3 CA3 -9.215968 -1.042485 -0.135920 CA3 1 LIG1 907
4 CA4 -7.808254 -1.100709 -0.141329 CA4 1 LIG1 907
5 HA5 -9.741937 -1.977652 -0.041309 HA5 1 LIG1 909
6 CA6 -6.998995 0.050473 -0.241603 CA6 1 LIG1 910
7 HA7 -7.327055 -2.064493 -0.064204 HA7 1 LIG1 909
8 CA8 -7.691165 1.280858 -0.343898 CA8 1 LIG1 907
9 HA9 -9.543940 2.332878 -0.424846 HA9 1 LIG1 909
10 HA10 -7.132783 2.200906 -0.434717 HA10 1 LIG1 909
11 CA11 1.804470 1.649115 -0.747497 CA11 1 LIG1 907
12 C!12 0.995590 0.758366 -0.010881 C!12 1 LIG1 911
13 CA13 1.641781 -0.198621 0.799848 CA13 1 LIG1 907
14 CA14 3.048145 -0.262174 0.859105 CA14 1 LIG1 907
15 HA15 1.068335 -0.891577 1.395532 HA15 1 LIG1 909
16 CA16 3.878272 0.618407 0.121214 CA16 1 LIG1 910
17 HA17 3.496836 -1.014424 1.491013 HA17 1 LIG1 909
18 CA18 3.209728 1.572693 -0.676494 CA18 1 LIG1 907
19 HA19 1.358610 2.388542 -1.393847 HA19 1 LIG1 909
20 HA20 3.798650 2.263771 -1.261461 HA20 1 LIG1 909
21 CA21 7.373699 -0.542899 0.739428 CA21 1 LIG1 910
22 CA22 7.998681 -1.656981 1.339458 CA22 1 LIG1 907
23 CA23 8.221071 0.328223 0.010516 CA23 1 LIG1 907
24 CA24 9.379231 -1.900898 1.220621 CA24 1 LIG1 907
25 HA25 7.392906 -2.356472 1.896140 HA25 1 LIG1 909
26 CA26 9.606788 0.100929 -0.112576 CA26 1 LIG1 907
27 CA27 10.210138 -1.013132 0.509356 CA27 1 LIG1 908
28 HA28 7.797411 1.190832 -0.482462 HA28 1 LIG1 909
29 HA29 9.799696 -2.778807 1.686476 HA29 1 LIG1 909
30 HA30 10.186329 0.790382 -0.704485 HA30 1 LIG1 909
31 CM31 5.321209 0.572830 0.136098 CM31 1 LIG1 912
32 CM32 5.946215 -0.375120 0.858585 CM32 1 LIG1 912
33 HC33 5.920804 1.311001 -0.376014 HC33 1 LIG1 913
34 HC34 5.361029 -0.964344 1.548967 HC34 1 LIG1 913
35 NT35 -11.260930 0.279080 -0.242558 NT35 1 LIG1 914
36 NT36 11.514705 -1.336613 0.316803 NT36 1 LIG1 914
37 CT37 -12.125145 -0.911664 -0.234282 CT37 1 LIG1 915
38 CT38 -13.486786 -0.710893 -0.928461 CT38 1 LIG1 916
39 HC39 -12.255832 -1.259065 0.791603 HC39 1 LIG1 917
40 HC40 -11.637414 -1.716822 -0.782124 HC40 1 LIG1 917
41 CT41 -14.295465 -2.013223 -1.015181 CT41 1 LIG1 916
42 HC42 -13.318519 -0.330756 -1.936930 HC42 1 LIG1 918
43 HC43 -14.085967 0.032480 -0.403863 HC43 1 LIG1 918
44 CT44 -15.647104 -1.815352 -1.717918 CT44 1 LIG1 916
45 HC45 -14.459422 -2.403626 -0.009953 HC45 1 LIG1 918
46 HC46 -13.712886 -2.765781 -1.548570 HC46 1 LIG1 918
47 CT47 -11.922920 1.457401 0.332720 CT47 1 LIG1 915
48 CT48 -12.370350 2.441157 -0.766449 CT48 1 LIG1 916
49 HC49 -11.250735 1.958111 1.031392 HC49 1 LIG1 917
50 HC50 -12.775374 1.162077 0.945864 HC50 1 LIG1 917
51 CT51 -13.008626 3.710092 -0.184760 CT51 1 LIG1 916
52 HC52 -13.085232 1.960214 -1.432020 HC52 1 LIG1 918
53 HC53 -11.521368 2.717363 -1.391713 HC53 1 LIG1 918
54 CT54 -13.507884 4.674993 -1.270684 CT54 1 LIG1 916
55 HC55 -12.283229 4.218735 0.451251 HC55 1 LIG1 918
56 HC56 -13.841276 3.428674 0.460616 HC56 1 LIG1 918
57 CT57 12.535938 -0.347117 -0.034314 CT57 1 LIG1 915
58 CT58 12.755850 0.639055 1.124180 CT58 1 LIG1 916
59 HC59 12.269548 0.172593 -0.955391 HC59 1 LIG1 917
60 HC60 13.484992 -0.845478 -0.235786 HC60 1 LIG1 917
61 CT61 13.954507 1.564581 0.871702 CT61 1 LIG1 916
62 HC62 12.928894 0.074511 2.042023 HC62 1 LIG1 918
63 HC63 11.856789 1.233649 1.292154 HC63 1 LIG1 918
64 CT64 14.236176 2.502730 2.054048 CT64 1 LIG1 916
65 HC65 13.780242 2.150141 -0.031885 HC65 1 LIG1 918
66 HC66 14.838435 0.955697 0.677369 HC66 1 LIG1 918
67 CT67 11.814333 -2.623274 -0.313561 CT67 1 LIG1 915
68 CT68 12.776282 -3.435468 0.569094 CT68 1 LIG1 916
69 HC69 12.225799 -2.472020 -1.313061 HC69 1 LIG1 917
70 HC70 10.898994 -3.200087 -0.458535 HC70 1 LIG1 917
71 CT71 13.090546 -4.812452 -0.031590 CT71 1 LIG1 916
72 HC72 12.330946 -3.565844 1.556624 HC72 1 LIG1 918
73 HC73 13.706006 -2.887485 0.722888 HC73 1 LIG1 918
74 CT74 14.021189 -5.644565 0.862705 CT74 1 LIG1 916
75 HC75 13.545560 -4.683533 -1.014561 HC75 1 LIG1 918
76 HC76 12.157768 -5.355436 -0.191849 HC76 1 LIG1 918
77 CT77 -14.183827 5.922873 -0.683321 CT77 1 LIG1 916
78 HC78 -14.210236 4.152807 -1.922277 HC78 1 LIG1 918
79 HC79 -12.669082 4.975883 -1.900118 HC79 1 LIG1 918
80 CT80 -14.724507 6.863672 -1.766447 CT80 1 LIG1 919
81 HC81 -13.473305 6.464080 -0.056243 HC81 1 LIG1 918
82 HC82 -15.004972 5.620316 -0.031896 HC82 1 LIG1 918
83 HC83 -13.928818 7.203879 -2.430002 HC83 1 LIG1 918
84 HC84 -15.186883 7.745140 -1.321790 HC84 1 LIG1 918
85 HC85 -15.480116 6.368496 -2.376554 HC85 1 LIG1 918
86 CT86 -16.467561 -3.109756 -1.808481 CT86 1 LIG1 916
87 HC87 -15.479004 -1.422846 -2.721947 HC87 1 LIG1 918
88 HC88 -16.223349 -1.058200 -1.184210 HC88 1 LIG1 918
89 CT89 -17.822696 -2.892085 -2.492422 CT89 1 LIG1 919
90 HC90 -16.629441 -3.512186 -0.807334 HC90 1 LIG1 918
91 HC91 -15.903678 -3.865368 -2.357846 HC91 1 LIG1 918
92 HC92 -18.423334 -2.158690 -1.952843 HC92 1 LIG1 918
93 HC93 -18.390611 -3.821920 -2.534651 HC93 1 LIG1 918
94 HC94 -17.696480 -2.533575 -3.514830 HC94 1 LIG1 918
95 CT95 15.476799 3.377981 1.825198 CT95 1 LIG1 916
96 HC96 14.375395 1.909131 2.958881 HC96 1 LIG1 918
97 HC97 13.364835 3.135105 2.232114 HC97 1 LIG1 918
98 CT98 15.774882 4.296592 3.015749 CT98 1 LIG1 919
99 HC99 15.339061 3.982501 0.927445 HC99 1 LIG1 918
100 HC100 16.342906 2.741012 1.639172 HC100 1 LIG1 918
101 HC101 14.948651 4.984212 3.200143 HC101 1 LIG1 918
102 HC102 16.669097 4.892590 2.831820 HC102 1 LIG1 918
103 HC103 15.941954 3.720978 3.926980 HC103 1 LIG1 918
104 CT104 14.319827 -7.031384 0.275353 CT104 1 LIG1 916
105 HC105 13.566101 -5.758437 1.847799 HC105 1 LIG1 918
106 HC106 14.956349 -5.104158 1.016810 HC106 1 LIG1 918
107 CT107 15.237143 -7.864081 1.178700 CT107 1 LIG1 919
108 HC108 14.779372 -6.924085 -0.708325 HC108 1 LIG1 918
109 HC109 13.384788 -7.571249 0.119403 HC109 1 LIG1 918
110 HC110 16.201378 -7.375317 1.322930 HC110 1 LIG1 918
111 HC111 15.422845 -8.846410 0.743403 HC111 1 LIG1 918
112 HC112 14.789175 -8.016269 2.161382 HC112 1 LIG1 918
113 CM113 -5.560667 -0.071405 -0.235628 CM113 1 LIG1 912
114 CM114 -4.798790 1.029374 -0.381698 CM114 1 LIG1 912
115 HC115 -5.070643 -1.030613 -0.151811 HC115 1 LIG1 913
116 CA116 -3.361973 0.924102 -0.284695 CA116 1 LIG1 910
117 HC117 -5.286146 1.964077 -0.617749 HC117 1 LIG1 913
118 CA118 -2.671861 -0.281008 -0.004718 CA118 1 LIG1 907
119 CA119 -1.266985 -0.339946 0.088667 CA119 1 LIG1 907
120 HA120 -3.232039 -1.192673 0.142121 HA120 1 LIG1 909
121 C!121 -0.480889 0.817094 -0.096822 C!121 1 LIG1 911
122 HA122 -0.803473 -1.293272 0.288386 HA122 1 LIG1 909
123 CA123 -1.149270 2.027433 -0.378028 CA123 1 LIG1 907
124 CA124 -2.555132 2.068839 -0.467745 CA124 1 LIG1 907
125 HA125 -3.035132 3.012423 -0.681342 HA125 1 LIG1 909
126 HA126 -0.594955 2.942869 -0.514548 HA126 1 LIG1 909
@<TRIPOS>BOND
1 1 2 1
2 1 8 1
3 1 9 1
4 2 3 1
5 2 35 1
6 3 4 1
7 3 5 1
8 4 6 1
9 4 7 1
10 6 8 1
11 6 113 1
12 8 10 1
13 11 12 1
14 11 18 1
15 11 19 1
16 12 13 1
17 12 121 1
18 13 14 1
19 13 15 1
20 14 16 1
21 14 17 1
22 16 18 1
23 16 31 1
24 18 20 1
25 21 22 1
26 21 23 1
27 21 32 1
28 22 24 1
29 22 25 1
30 23 26 1
31 23 28 1
32 24 27 1
33 24 29 1
34 26 27 1
35 26 30 1
36 27 36 1
37 31 32 1
38 31 33 1
39 32 34 1
40 35 37 1
41 35 47 1
42 36 57 1
43 36 67 1
44 37 38 1
45 37 39 1
46 37 40 1
47 38 41 1
48 38 42 1
49 38 43 1
50 41 44 1
51 41 45 1
52 41 46 1
53 44 86 1
54 44 87 1
55 44 88 1
56 47 48 1
57 47 49 1
58 47 50 1
59 48 51 1
60 48 52 1
61 48 53 1
62 51 54 1
63 51 55 1
64 51 56 1
65 54 77 1
66 54 78 1
67 54 79 1
68 57 58 1
69 57 59 1
70 57 60 1
71 58 61 1
72 58 62 1
73 58 63 1
74 61 64 1
75 61 65 1
76 61 66 1
77 64 95 1
78 64 96 1
79 64 97 1
80 67 68 1
81 67 69 1
82 67 70 1
83 68 71 1
84 68 72 1
85 68 73 1
86 71 74 1
87 71 75 1
88 71 76 1
89 74 104 1
90 74 105 1
91 74 106 1
92 77 80 1
93 77 81 1
94 77 82 1
95 80 83 1
96 80 84 1
97 80 85 1
98 86 89 1
99 86 90 1
100 86 91 1
101 89 92 1
102 89 93 1
103 89 94 1
104 95 98 1
105 95 99 1
106 95 100 1
107 98 101 1
108 98 102 1
109 98 103 1
110 104 107 1
111 104 108 1
112 104 109 1
113 107 110 1
114 107 111 1
115 107 112 1
116 113 114 1
117 113 115 1
118 114 116 1
119 114 117 1
120 116 118 1
121 116 124 1
122 118 119 1
123 118 120 1
124 119 121 1
125 119 122 1
126 121 123 1
127 123 124 1
128 123 126 1
129 124 125 1
