@<TRIPOS>MOLECULE
*****
     122     125       1
SMALL
NO_CHARGES

@<TRIPOS>ATOM
       1   C1          -8.970400    4.446500   -0.191900   C.2 
       2   C2          -9.736200    3.258400   -0.327200   C.2 
       3   C3          -9.035600    2.034700   -0.331300   C.2 
       4   C4          -7.642800    2.003300   -0.226300   C.2 
       5   H5          -9.556800    1.090300   -0.434200   H   
       6   C6          -6.913100    3.181600   -0.091400   C.2 
       7   H7          -7.140000    1.027000   -0.241200   H   
       8   C8          -7.587100    4.395900   -0.079100   C.2 
       9   H9          -9.404400    5.448100   -0.202500   H   
      10   H10         -7.056800    5.321500    0.004100   H   
      11   C11          2.244400    3.545200    0.682100   C.2 
      12   C12          1.378300    2.435700    0.579700   C.2 
      13   C13          1.944700    1.148100    0.607600   C.2 
      14   C14          3.327600    0.986800    0.718000   C.2 
      15   H15          1.345600    0.253000    0.542500   H   
      16   C16          4.165400    2.086500    0.810700   C.2 
      17   H17          3.761800   -0.020900    0.703200   H   
      18   C18          3.616500    3.361800    0.790500   C.2 
      19   H19          1.913700    4.573200    0.689200   H   
      20   H20          4.224900    4.231500    0.847000   H   
      21   C21          8.171100    1.458800    1.117700   C.2 
      22   C22          8.677300    0.161100    1.152500   C.2 
      23   C23          9.044800    2.533800    1.179700   C.2 
      24   C24         10.052600   -0.058700    1.275700   C.2 
      25   H25          7.972400   -0.691200    1.090400   H   
      26   C26         10.416600    2.323200    1.282000   C.2 
      27   C27         10.957000    1.023400    1.325400   C.2 
      28   H28          8.654200    3.554200    1.143300   H   
      29   H29         10.394000   -1.085600    1.323800   H   
      30   H30         11.040300    3.188800    1.310000   H   
      31   N31        -11.173300    3.302700   -0.445800   N.3 
      32   N32         12.380800    0.804000    1.435700   N.3 
      33   C33        -11.873800    1.996100   -0.582600   C.3 
      34   C34        -13.398400    1.906200   -0.699400   C.3 
      35   H35        -11.592600    1.372600    0.284000   H   
      36   H36        -11.471000    1.472300   -1.467200   H   
      37   C37        -13.895100    0.455200   -0.821300   C.3 
      38   H38        -13.767300    2.415400   -1.619800   H   
      39   H39        -13.865800    2.337600    0.202000   H   
      40   C40        -15.427200    0.418600   -0.964100   C.3 
      41   H41        -13.593000   -0.135500    0.076400   H   
      42   H42        -13.433100   -0.012700   -1.690000   H   
      43   C43        -11.793200    4.656800   -0.433300   C.3 
      44   C44        -13.304600    4.886000   -0.556900   C.3 
      45   H45        -11.309400    5.227800   -1.280700   H   
      46   H46        -11.505400    5.126000    0.529300   H   
      47   C47        -13.656000    6.385600   -0.499100   C.3 
      48   H48        -13.865300    4.394600    0.254200   H   
      49   H49        -13.668100    4.505200   -1.518100   H   
      50   C50        -15.175900    6.588500   -0.638700   C.3 
      51   H51        -13.161800    6.922400   -1.328900   H   
      52   H52        -13.285800    6.816800    0.467600   H   
      53   C53         13.213400    2.018700    1.525300   C.3 
      54   C54         14.739300    1.987400    1.741700   C.3 
      55   H55         12.838900    2.654100    2.344500   H   
      56   H56         13.024900    2.598800    0.596700   H   
      57   C57         15.295900    3.430200    1.824200   C.3 
      58   H58         15.232000    1.476600    0.881200   H   
      59   H59         14.981500    1.473400    2.692600   H   
      60   C60         16.826300    3.455500    1.975600   C.3 
      61   H61         14.797200    3.946100    2.661600   H   
      62   H62         15.022900    3.983300    0.912900   H   
      63   C63         12.843000   -0.614800    1.446200   C.3 
      64   C64         14.336600   -0.973800    1.493700   C.3 
      65   H65         12.456200   -1.080500    0.543400   H   
      66   H66         12.340200   -1.118200    2.308100   H   
      67   C67         14.571700   -2.493800    1.473900   C.3 
      68   H68         14.816300   -0.599900    2.388900   H   
      69   H69         14.840300   -0.563600    0.619300   H   
      70   C70         16.081100   -2.812400    1.565600   C.3 
      71   H71         14.112700   -2.929300    0.533300   H   
      72   H72         14.043300   -2.959200    2.333000   H   
      73   C73        -15.571800    8.068400   -0.593100   C.3 
      74   H74        -15.702800    6.028100    0.180600   H   
      75   H75        -15.519200    6.151100   -1.566900   H   
      76   C76        -17.093900    8.246100   -0.715600   C.3 
      77   H77        -15.071200    8.613700   -1.390300   H   
      78   H78        -15.222200    8.535000    0.337500   H   
      79   H79        -17.477800    7.842400   -1.674600   H   
      80   H80        -17.340400    9.330000   -0.652900   H   
      81   H81        -17.618000    7.712200    0.095700   H   
      82   C82        -15.997400   -1.006100   -1.083600   C.3 
      83   H83        -15.713000    1.036100   -1.860300   H   
      84   H84        -15.909400    0.902000   -0.083500   H   
      85   C85        -17.522800   -0.985600   -1.206300   C.3 
      86   H86        -15.703100   -1.613000   -0.218600   H   
      87   H87        -15.575700   -1.513200   -1.968500   H   
      88   H88        -17.971600   -0.501600   -0.309500   H   
      89   H89        -17.952300   -2.009900   -1.307200   H   
      90   H90        -17.833200   -0.406000   -2.096300   H   
      91   C91         17.366100    4.887100    2.051600   C.3 
      92   H92         17.280400    2.921800    1.126600   H   
      93   H93         17.124900    2.912900    2.908500   H   
      94   C94         18.873800    4.912300    2.205100   C.3 
      95   H95         16.902100    5.408500    2.931000   H   
      96   H96         17.098800    5.444500    1.128900   H   
      97   H97         19.184100    4.368500    3.126700   H   
      98   H98         19.259100    5.958600    2.299400   H   
      99   H99         19.333600    4.420400    1.324100   H   
     100   C100        16.358800   -4.327200    1.548700   C.3 
     101   H101        16.505400   -2.354800    2.463100   H   
     102   H102        16.583600   -2.334500    0.708400   H   
     103   C103        17.870200   -4.612200    1.642000   C.3 
     104   H104        15.967200   -4.787200    0.604300   H   
     105   H105        15.842000   -4.819200    2.403200   H   
     106   H106        18.423300   -4.134500    0.762700   H   
     107   H107        18.024600   -5.706000    1.613600   H   
     108   H108        18.295200   -4.202700    2.589800   H   
     109   C109        -2.869400    2.924700    0.236300   C.2 
     110   C110        -2.309400    1.655800    0.236200   C.2 
     111   C111        -0.925800    1.502900    0.345100   C.2 
     112   H112        -2.964800    0.776600    0.127900   H   
     113   C113        -0.077600    2.616800    0.468700   C.2 
     114   H114        -0.554400    0.475600    0.303300   H   
     115   C115        -0.665800    3.893200    0.475800   C.2 
     116   C116        -2.049000    4.048000    0.363400   C.2 
     117   H117        -2.513100    5.036800    0.356100   H   
     118   H118        -0.095000    4.802900    0.575900   H   
     119   C119        -5.484400    3.130000    0.026400   C.1 
     120   C120        -4.295500    3.058500    0.122700   C.1 
     121   C121         5.582200    1.884600    0.919400   C.1 
     122   C122         6.755800    1.700300    1.009300   C.1 

@<TRIPOS>BOND
       1       1       2       1
       2       1       8       1
       3       1       9       1
       4       2       3       1
       5       2      31       1
       6       3       4       1
       7       3       5       1
       8       4       6       1
       9       4       7       1
      10       6       8       1
      11       6     119       1
      12       8      10       1
      13      11      12       1
      14      11      18       1
      15      11      19       1
      16      12      13       1
      17      12     113       1
      18      13      14       1
      19      13      15       1
      20      14      16       1
      21      14      17       1
      22      16      18       1
      23      16     121       1
      24      18      20       1
      25      21      22       1
      26      21      23       1
      27      21     122       1
      28      22      24       1
      29      22      25       1
      30      23      26       1
      31      23      28       1
      32      24      27       1
      33      24      29       1
      34      26      27       1
      35      26      30       1
      36      27      32       1
      37      31      33       1
      38      31      43       1
      39      32      53       1
      40      32      63       1
      41      33      34       1
      42      33      35       1
      43      33      36       1
      44      34      37       1
      45      34      38       1
      46      34      39       1
      47      37      40       1
      48      37      41       1
      49      37      42       1
      50      40      82       1
      51      40      83       1
      52      40      84       1
      53      43      44       1
      54      43      45       1
      55      43      46       1
      56      44      47       1
      57      44      48       1
      58      44      49       1
      59      47      50       1
      60      47      51       1
      61      47      52       1
      62      50      73       1
      63      50      74       1
      64      50      75       1
      65      53      54       1
      66      53      55       1
      67      53      56       1
      68      54      57       1
      69      54      58       1
      70      54      59       1
      71      57      60       1
      72      57      61       1
      73      57      62       1
      74      60      91       1
      75      60      92       1
      76      60      93       1
      77      63      64       1
      78      63      65       1
      79      63      66       1
      80      64      67       1
      81      64      68       1
      82      64      69       1
      83      67      70       1
      84      67      71       1
      85      67      72       1
      86      70     100       1
      87      70     101       1
      88      70     102       1
      89      73      76       1
      90      73      77       1
      91      73      78       1
      92      76      79       1
      93      76      80       1
      94      76      81       1
      95      82      85       1
      96      82      86       1
      97      82      87       1
      98      85      88       1
      99      85      89       1
     100      85      90       1
     101      91      94       1
     102      91      95       1
     103      91      96       1
     104      94      97       1
     105      94      98       1
     106      94      99       1
     107     100     103       1
     108     100     104       1
     109     100     105       1
     110     103     106       1
     111     103     107       1
     112     103     108       1
     113     109     110       1
     114     109     116       1
     115     109     120       1
     116     110     111       1
     117     110     112       1
     118     111     113       1
     119     111     114       1
     120     113     115       1
     121     115     116       1
     122     115     118       1
     123     116     117       1
     124     119     120       1
     125     121     122       1

@<TRIPOS>SUBSTRUCTURE
       1            ****       1
