@<TRIPOS>MOLECULE
*****
 92 100 0 0 0
SMALL
GASTEIGER

@<TRIPOS>ATOM
      1 C          -6.7359   -1.0894   -0.1008 C.ar    1  LIG1       -0.0355
      2 C          -5.5836   -0.3417    0.1990 C.3     1  LIG1        0.0187
      3 C          -6.6376   -2.4965   -0.2948 C.ar    1  LIG1       -0.0340
      4 C          -4.3553   -1.0019    0.3040 C.2     1  LIG1       -0.0323
      5 C          -5.3872   -3.1363   -0.1833 C.3     1  LIG1        0.0347
      6 C          -4.2584   -2.3605    0.1214 C.2     1  LIG1        0.0201
      7 H          -5.3169   -4.2033   -0.3328 H       1  LIG1        0.0419
      8 C          -3.0038   -0.3851    0.6149 C.3     1  LIG1        0.0266
      9 C          -3.0640    0.2475    2.0176 C.3     1  LIG1       -0.0508
     10 H          -3.7693    1.1053    2.0287 H       1  LIG1        0.0242
     11 H          -2.0878    0.5990    2.3755 H       1  LIG1        0.0242
     12 H          -3.4175   -0.5022    2.7590 H       1  LIG1        0.0242
     13 C          -2.1290   -1.6463    0.5870 C.2     1  LIG1        0.0215
     14 C          -2.6393    0.5989   -0.5101 C.3     1  LIG1       -0.0508
     15 H          -3.3348    1.4650   -0.5107 H       1  LIG1        0.0242
     16 H          -2.7137    0.0922   -1.4970 H       1  LIG1        0.0242
     17 H          -1.6114    0.9747   -0.4375 H       1  LIG1        0.0242
     18 N          -2.9294   -2.7884    0.2741 N.pl3   1  LIG1       -0.3012
     19 C          -2.4599   -4.1639    0.1295 C.3     1  LIG1        0.0418
     20 C          -0.7926   -1.7428    0.8376 C.2     1  LIG1       -0.0297
     21 C           0.1847   -0.6659    1.1847 C.2     1  LIG1        0.0640
     22 H          -0.3549   -2.7286    0.8020 H       1  LIG1        0.0641
     23 C          -1.5438   -4.3001   -1.0609 C.ar    1  LIG1       -0.0298
     24 H          -3.3013   -4.8606   -0.0365 H       1  LIG1        0.0517
     25 H          -1.9670   -4.4850    1.0723 H       1  LIG1        0.0517
     26 C          -2.0025   -3.9516   -2.3426 C.ar    1  LIG1       -0.0571
     27 C          -1.1592   -4.0793   -3.4506 C.ar    1  LIG1       -0.0615
     28 H          -3.0106   -3.5803   -2.4799 H       1  LIG1        0.0621
     29 C          -0.2337   -4.7859   -0.9062 C.ar    1  LIG1       -0.0571
     30 C           0.6053   -4.9122   -2.0174 C.ar    1  LIG1       -0.0615
     31 H           0.1359   -5.0662    0.0723 H       1  LIG1        0.0621
     32 C           0.1436   -4.5584   -3.2881 C.ar    1  LIG1       -0.0617
     33 H          -1.5160   -3.8075   -4.4356 H       1  LIG1        0.0618
     34 H           1.6136   -5.2855   -1.8934 H       1  LIG1        0.0618
     35 H           0.7948   -4.6572   -4.1469 H       1  LIG1        0.0618
     36 C           0.3557    0.7832    1.3777 C.2     1  LIG1        0.1857
     37 C           1.7603    0.5941    1.7150 C.3     1  LIG1        0.1391
     38 C           1.4803   -0.8481    1.4856 C.2     1  LIG1        0.1857
     39 O          -0.3442    1.7818    1.3326 O.2     1  LIG1       -0.2905
     40 O           2.1860   -1.9947    1.5326 O.2     1  LIG1       -0.2905
     41 C           2.6268    1.5738    2.0572 C.2     1  LIG1       -0.0433
     42 C           4.0840    1.4729    2.4529 C.2     1  LIG1        0.0188
     43 H           2.1833    2.5395    2.0067 H       1  LIG1        0.0602
     44 C           4.8941    0.1591    2.4092 C.3     1  LIG1        0.0298
     45 C           4.4270   -0.8469    3.4747 C.3     1  LIG1       -0.0505
     46 H           4.4816   -0.3861    4.4852 H       1  LIG1        0.0242
     47 H           5.0749   -1.7495    3.4691 H       1  LIG1        0.0242
     48 H           3.3846   -1.1587    3.3396 H       1  LIG1        0.0242
     49 C           6.2410    0.6914    2.8064 C.ar    1  LIG1       -0.0143
     50 C           4.9779   -0.4250    0.9885 C.3     1  LIG1       -0.0505
     51 H           5.6446   -1.3134    0.9719 H       1  LIG1        0.0242
     52 H           3.9947   -0.7234    0.5961 H       1  LIG1        0.0242
     53 H           5.3891    0.3324    0.2859 H       1  LIG1        0.0242
     54 N           4.8348    2.4839    2.8379 N.pl3   1  LIG1       -0.2984
     55 C           4.5213    3.9106    3.0543 C.3     1  LIG1        0.0420
     56 C           3.0842    4.3409    3.1766 C.ar    1  LIG1       -0.0298
     57 H           5.0457    4.4955    2.2674 H       1  LIG1        0.0517
     58 H           4.9603    4.2165    4.0289 H       1  LIG1        0.0517
     59 C           2.5378    5.2505    2.2540 C.ar    1  LIG1       -0.0571
     60 C           1.2035    5.6509    2.3678 C.ar    1  LIG1       -0.0615
     61 H           3.1424    5.6424    1.4455 H       1  LIG1        0.0621
     62 C           2.2812    3.8531    4.2245 C.ar    1  LIG1       -0.0571
     63 C           0.4081    5.1535    3.4035 C.ar    1  LIG1       -0.0617
     64 H           0.7859    6.3468    1.6516 H       1  LIG1        0.0618
     65 C           6.1499    2.0273    3.0386 C.ar    1  LIG1        0.0387
     66 C           7.2673    2.7808    3.4283 C.ar    1  LIG1       -0.0323
     67 C           7.4514    0.0040    2.9471 C.ar    1  LIG1       -0.0482
     68 C           8.5969    0.7241    3.3384 C.ar    1  LIG1       -0.0175
     69 C           8.5034    2.1245    3.5812 C.ar    1  LIG1       -0.0161
     70 H           7.1883    3.8446    3.6094 H       1  LIG1        0.0642
     71 C           0.9464    4.2575    4.3319 C.ar    1  LIG1       -0.0615
     72 H          -0.6252    5.4645    3.4876 H       1  LIG1        0.0618
     73 H           0.3285    3.8757    5.1341 H       1  LIG1        0.0618
     74 H           2.6895    3.1574    4.9470 H       1  LIG1        0.0621
     75 H          -5.6403    0.7298    0.3478 H       1  LIG1        0.0404
     76 H           7.4997   -1.0613    2.7577 H       1  LIG1        0.0627
     77 C          -7.9844   -0.4592   -0.2117 C.ar    1  LIG1       -0.0577
     78 C          -7.7923   -3.2349   -0.5964 C.ar    1  LIG1       -0.0576
     79 C          -9.1245   -1.2099   -0.5117 C.ar    1  LIG1       -0.0615
     80 H          -8.0755    0.6107   -0.0662 H       1  LIG1        0.0621
     81 C          -9.0290   -2.5913   -0.7037 C.ar    1  LIG1       -0.0615
     82 H          -7.7364   -4.3062   -0.7481 H       1  LIG1        0.0621
     83 H          -9.9167   -3.1651   -0.9362 H       1  LIG1        0.0618
     84 H         -10.0857   -0.7193   -0.5960 H       1  LIG1        0.0618
     85 C           9.8315    0.0760    3.4922 C.ar    1  LIG1       -0.0540
     86 C           9.6460    2.8382    3.9726 C.ar    1  LIG1       -0.0540
     87 C          10.8683    2.1769    4.1221 C.ar    1  LIG1       -0.0612
     88 H           9.5912    3.9037    4.1623 H       1  LIG1        0.0624
     89 C          10.9609    0.8024    3.8827 C.ar    1  LIG1       -0.0612
     90 H           9.9205   -0.9885    3.3109 H       1  LIG1        0.0624
     91 H          11.9116    0.2986    4.0006 H       1  LIG1        0.0618
     92 H          11.7471    2.7316    4.4248 H       1  LIG1        0.0618
@<TRIPOS>BOND
     1    33    27    1
     2    35    32    1
     3    27    32   ar
     4    27    26   ar
     5    32    30   ar
     6    28    26    1
     7    26    23   ar
     8    30    34    1
     9    30    29   ar
    10    16    14    1
    11    23    29   ar
    12    23    19    1
    13    83    81    1
    14    29    31    1
    15    82    78    1
    16    81    78   ar
    17    81    79   ar
    18    78     3   ar
    19    84    79    1
    20    79    77   ar
    21    15    14    1
    22    14    17    1
    23    14     8    1
    24     7     5    1
    25     3     5    1
    26     3     1   ar
    27    77     1   ar
    28    77    80    1
    29     5     6    1
    30     1     2    1
    31    24    19    1
    32     6    18    1
    33     6     4    2
    34    19    18    1
    35    19    25    1
    36     2     4    1
    37     2    75    1
    38    18    13    1
    39    53    50    1
    40     4     8    1
    41    13     8    1
    42    13    20    2
    43    52    50    1
    44     8     9    1
    45    22    20    1
    46    20    21    1
    47    51    50    1
    48    50    44    1
    49    21    36    1
    50    21    38    2
    51    39    36    2
    52    36    37    1
    53    61    59    1
    54    38    40    1
    55    38    37    1
    56    64    60    1
    57    37    41    1
    58    43    41    1
    59     9    10    1
    60     9    11    1
    61     9    12    1
    62    41    42    2
    63    59    60   ar
    64    59    56   ar
    65    57    55    1
    66    60    63   ar
    67    44    42    1
    68    44    49    1
    69    44    45    1
    70    42    54    1
    71    76    67    1
    72    49    67   ar
    73    49    65   ar
    74    54    65    1
    75    54    55    1
    76    67    68   ar
    77    65    66   ar
    78    55    56    1
    79    55    58    1
    80    56    62   ar
    81    90    85    1
    82    68    85   ar
    83    68    69   ar
    84    48    45    1
    85    63    72    1
    86    63    71   ar
    87    66    69   ar
    88    66    70    1
    89    47    45    1
    90    45    46    1
    91    85    89   ar
    92    69    86   ar
    93    89    91    1
    94    89    87   ar
    95    86    87   ar
    96    86    88    1
    97    87    92    1
    98    62    71   ar
    99    62    74    1
   100    71    73    1
