@<TRIPOS>MOLECULE
*****
 92 100 0 0 0
SMALL
GASTEIGER

@<TRIPOS>ATOM
      1 C          -8.2099    0.7763    0.0173 C.ar    1  LIG1       -0.0612
      2 C          -7.1061    1.5792    0.2995 C.ar    1  LIG1       -0.0612
      3 C          -8.0493   -0.5968   -0.1637 C.ar    1  LIG1       -0.0540
      4 H          -9.1938    1.2204   -0.0618 H       1  LIG1        0.0618
      5 C          -5.8309    1.0180    0.4047 C.ar    1  LIG1       -0.0537
      6 H          -7.2382    2.6447    0.4384 H       1  LIG1        0.0618
      7 C          -6.7767   -1.1804   -0.0613 C.ar    1  LIG1       -0.0175
      8 H          -8.9182   -1.2060   -0.3831 H       1  LIG1        0.0624
      9 C          -5.6419   -0.3691    0.2286 C.ar    1  LIG1       -0.0121
     10 H          -5.0158    1.6810    0.6226 H       1  LIG1        0.0624
     11 C          -6.6277   -2.5667   -0.2456 C.ar    1  LIG1       -0.0523
     12 C          -4.3698   -0.9980    0.3288 C.ar    1  LIG1       -0.0072
     13 C          -5.3704   -3.1647   -0.1446 C.ar    1  LIG1       -0.0395
     14 H          -7.4892   -3.1853   -0.4680 H       1  LIG1        0.0624
     15 C          -4.2567   -2.3656    0.1455 C.ar    1  LIG1        0.0387
     16 H          -5.2915   -4.2296   -0.2927 H       1  LIG1        0.0636
     17 C          -2.9909   -0.3904    0.6294 C.3     1  LIG1        0.0306
     18 C          -2.9873    0.2077    2.0539 C.3     1  LIG1       -0.0505
     19 H          -3.6283    1.1011    2.1472 H       1  LIG1        0.0242
     20 H          -1.9861    0.4919    2.3998 H       1  LIG1        0.0242
     21 H          -3.3559   -0.5499    2.7794 H       1  LIG1        0.0242
     22 C          -2.1221   -1.6539    0.5887 C.2     1  LIG1        0.0221
     23 C          -2.5849    0.5718   -0.5061 C.3     1  LIG1       -0.0505
     24 H          -3.2019    1.4874   -0.5302 H       1  LIG1        0.0242
     25 H          -2.6966    0.0607   -1.4872 H       1  LIG1        0.0242
     26 H          -1.5342    0.8808   -0.4508 H       1  LIG1        0.0242
     27 N          -2.9245   -2.7910    0.2848 N.pl3   1  LIG1       -0.2981
     28 C          -2.4531   -4.1684    0.1462 C.3     1  LIG1        0.0421
     29 C          -0.7814   -1.7534    0.8250 C.2     1  LIG1       -0.0297
     30 C           0.2042   -0.6810    1.1648 C.2     1  LIG1        0.0640
     31 H          -0.3456   -2.7391    0.7852 H       1  LIG1        0.0641
     32 C          -1.5317   -4.3136   -1.0397 C.ar    1  LIG1       -0.0298
     33 H          -3.2901   -4.8693   -0.0175 H       1  LIG1        0.0517
     34 H          -1.9620   -4.4846    1.0917 H       1  LIG1        0.0517
     35 C          -1.9802   -3.9666   -2.3252 C.ar    1  LIG1       -0.0571
     36 C          -1.1301   -4.1028   -3.4272 C.ar    1  LIG1       -0.0615
     37 H          -2.9850   -3.5893   -2.4699 H       1  LIG1        0.0621
     38 C          -0.2255   -4.8074   -0.8753 C.ar    1  LIG1       -0.0571
     39 C           0.6200   -4.9423   -1.9803 C.ar    1  LIG1       -0.0615
     40 H           0.1362   -5.0872    0.1064 H       1  LIG1        0.0621
     41 C           0.1688   -4.5893   -3.2548 C.ar    1  LIG1       -0.0617
     42 H          -1.4784   -3.8316   -4.4153 H       1  LIG1        0.0618
     43 H           1.6251   -5.3215   -1.8483 H       1  LIG1        0.0618
     44 H           0.8252   -4.6945   -4.1089 H       1  LIG1        0.0618
     45 C           0.3833    0.7677    1.3603 C.2     1  LIG1        0.1857
     46 C           1.7870    0.5702    1.6951 C.3     1  LIG1        0.1391
     47 C           1.4998   -0.8699    1.4585 C.2     1  LIG1        0.1857
     48 O          -0.3157    1.7681    1.3270 O.2     1  LIG1       -0.2905
     49 O           2.2021   -2.0195    1.4989 O.2     1  LIG1       -0.2905
     50 C           2.6591    1.5421    2.0462 C.2     1  LIG1       -0.0433
     51 C           4.1151    1.4312    2.4518 C.2     1  LIG1        0.0188
     52 H           2.2204    2.5086    1.9974 H       1  LIG1        0.0602
     53 C           4.9182    0.1144    2.3912 C.3     1  LIG1        0.0303
     54 C           4.4014   -0.8849    3.4452 C.3     1  LIG1       -0.0505
     55 H           4.4824   -0.4382    4.4600 H       1  LIG1        0.0242
     56 H           4.9743   -1.8306    3.4431 H       1  LIG1        0.0242
     57 H           3.3416   -1.1306    3.3169 H       1  LIG1        0.0242
     58 C           6.2841    0.6284    2.8101 C.ar    1  LIG1       -0.0072
     59 C           4.9643   -0.4175    0.9436 C.3     1  LIG1       -0.0505
     60 H           5.5780   -1.3303    0.8456 H       1  LIG1        0.0242
     61 H           3.9654   -0.6556    0.5507 H       1  LIG1        0.0242
     62 H           5.3943    0.3557    0.2702 H       1  LIG1        0.0242
     63 N           4.8644    2.4298    2.8590 N.pl3   1  LIG1       -0.2984
     64 C           4.5547    3.8564    3.0972 C.3     1  LIG1        0.0420
     65 C           3.1217    4.3159    3.1496 C.ar    1  LIG1       -0.0298
     66 H           5.1213    4.4489    2.3462 H       1  LIG1        0.0517
     67 H           4.9530    4.1356    4.0971 H       1  LIG1        0.0517
     68 C           2.6423    5.2392    2.2031 C.ar    1  LIG1       -0.0571
     69 C           1.3128    5.6674    2.2486 C.ar    1  LIG1       -0.0615
     70 H           3.2954    5.6198    1.4276 H       1  LIG1        0.0621
     71 C           2.2555    3.8448    4.1546 C.ar    1  LIG1       -0.0571
     72 C           0.4545    5.1850    3.2399 C.ar    1  LIG1       -0.0617
     73 H           0.9477    6.3729    1.5132 H       1  LIG1        0.0618
     74 C           6.1782    1.9688    3.0644 C.ar    1  LIG1        0.0387
     75 C           7.2776    2.7336    3.4765 C.ar    1  LIG1       -0.0395
     76 C           7.5309   -0.0355    2.9625 C.ar    1  LIG1       -0.0121
     77 C           8.6563    0.7325    3.3808 C.ar    1  LIG1       -0.0175
     78 C           8.5170    2.1100    3.6339 C.ar    1  LIG1       -0.0523
     79 H           7.1884    3.7927    3.6737 H       1  LIG1        0.0636
     80 H           9.3686    2.6993    3.9529 H       1  LIG1        0.0624
     81 C           7.7031   -1.4130    2.7190 C.ar    1  LIG1       -0.0537
     82 C           9.9062    0.1154    3.5409 C.ar    1  LIG1       -0.0540
     83 C           8.9569   -2.0087    2.8827 C.ar    1  LIG1       -0.0612
     84 H           6.8891   -2.0397    2.4049 H       1  LIG1        0.0624
     85 C          10.0528   -1.2488    3.2912 C.ar    1  LIG1       -0.0612
     86 H          10.7676    0.6913    3.8585 H       1  LIG1        0.0624
     87 H           9.0790   -3.0671    2.6914 H       1  LIG1        0.0618
     88 H          11.0198   -1.7191    3.4153 H       1  LIG1        0.0618
     89 C           0.9252    4.2769    4.1931 C.ar    1  LIG1       -0.0615
     90 H          -0.5752    5.5171    3.2703 H       1  LIG1        0.0618
     91 H           0.2581    3.9071    4.9608 H       1  LIG1        0.0618
     92 H           2.6108    3.1395    4.8955 H       1  LIG1        0.0621
@<TRIPOS>BOND
     1    42    36    1
     2    44    41    1
     3    36    41   ar
     4    36    35   ar
     5    41    39   ar
     6    37    35    1
     7    35    32   ar
     8    39    43    1
     9    39    38   ar
    10    25    23    1
    11    32    38   ar
    12    32    28    1
    13    38    40    1
    14    24    23    1
    15    23    26    1
    16    23    17    1
    17    14    11    1
    18     8     3    1
    19    16    13    1
    20    11    13   ar
    21    11     7   ar
    22     3     7   ar
    23     3     1   ar
    24    13    15   ar
    25     4     1    1
    26     7     9   ar
    27    33    28    1
    28     1     2   ar
    29    15    27    1
    30    15    12   ar
    31    28    27    1
    32    28    34    1
    33     9    12   ar
    34     9     5   ar
    35    62    59    1
    36    27    22    1
    37     2     5   ar
    38     2     6    1
    39    12    17    1
    40     5    10    1
    41    61    59    1
    42    22    17    1
    43    22    29    2
    44    17    18    1
    45    31    29    1
    46    29    30    1
    47    60    59    1
    48    59    53    1
    49    30    45    1
    50    30    47    2
    51    48    45    2
    52    45    46    1
    53    70    68    1
    54    47    49    1
    55    47    46    1
    56    73    69    1
    57    46    50    1
    58    52    50    1
    59    50    51    2
    60    18    19    1
    61    18    20    1
    62    18    21    1
    63    68    69   ar
    64    68    65   ar
    65    69    72   ar
    66    66    64    1
    67    53    51    1
    68    53    58    1
    69    53    54    1
    70    84    81    1
    71    51    63    1
    72    87    83    1
    73    81    83   ar
    74    81    76   ar
    75    58    76   ar
    76    58    74   ar
    77    63    74    1
    78    63    64    1
    79    83    85   ar
    80    76    77   ar
    81    74    75   ar
    82    64    65    1
    83    64    67    1
    84    65    71   ar
    85    72    90    1
    86    72    89   ar
    87    85    88    1
    88    85    82   ar
    89    57    54    1
    90    77    82   ar
    91    77    78   ar
    92    56    54    1
    93    54    55    1
    94    75    78   ar
    95    75    79    1
    96    82    86    1
    97    78    80    1
    98    71    89   ar
    99    71    92    1
   100    89    91    1
