@<TRIPOS>MOLECULE
*****
      92     100       1
SMALL
NO_CHARGES

@<TRIPOS>ATOM
       1   C1          -8.209900    0.776300    0.017300   C.2 
       2   C2          -7.106100    1.579200    0.299500   C.2 
       3   C3          -8.049300   -0.596800   -0.163700   C.2 
       4   H4          -9.193800    1.220400   -0.061800   H   
       5   C5          -5.830900    1.018000    0.404700   C.2 
       6   H6          -7.238200    2.644700    0.438400   H   
       7   C7          -6.776700   -1.180400   -0.061300   C.2 
       8   H8          -8.918200   -1.206000   -0.383100   H   
       9   C9          -5.641900   -0.369100    0.228600   C.2 
      10   H10         -5.015800    1.681000    0.622600   H   
      11   C11         -6.627700   -2.566700   -0.245600   C.2 
      12   C12         -4.369800   -0.998000    0.328800   C.2 
      13   C13         -5.370400   -3.164700   -0.144600   C.2 
      14   H14         -7.489200   -3.185300   -0.468000   H   
      15   C15         -4.256700   -2.365600    0.145500   C.2 
      16   H16         -5.291500   -4.229600   -0.292700   H   
      17   C17         -2.990900   -0.390400    0.629400   C.3 
      18   C18         -2.987300    0.207700    2.053900   C.3 
      19   H19         -3.628300    1.101100    2.147200   H   
      20   H20         -1.986100    0.491900    2.399800   H   
      21   H21         -3.355900   -0.549900    2.779400   H   
      22   C22         -2.122100   -1.653900    0.588700   C.2 
      23   C23         -2.584900    0.571800   -0.506100   C.3 
      24   H24         -3.201900    1.487400   -0.530200   H   
      25   H25         -2.696600    0.060700   -1.487200   H   
      26   H26         -1.534200    0.880800   -0.450800   H   
      27   N27         -2.924500   -2.791000    0.284800   N.3 
      28   C28         -2.453100   -4.168400    0.146200   C.3 
      29   C29         -0.781400   -1.753400    0.825000   C.2 
      30   C30          0.204200   -0.681000    1.164800   C.2 
      31   H31         -0.345600   -2.739100    0.785200   H   
      32   C32         -1.531700   -4.313600   -1.039700   C.2 
      33   H33         -3.290100   -4.869300   -0.017500   H   
      34   H34         -1.962000   -4.484600    1.091700   H   
      35   C35         -1.980200   -3.966600   -2.325200   C.2 
      36   C36         -1.130100   -4.102800   -3.427200   C.2 
      37   H37         -2.985000   -3.589300   -2.469900   H   
      38   C38         -0.225500   -4.807400   -0.875300   C.2 
      39   C39          0.620000   -4.942300   -1.980300   C.2 
      40   H40          0.136200   -5.087200    0.106400   H   
      41   C41          0.168800   -4.589300   -3.254800   C.2 
      42   H42         -1.478400   -3.831600   -4.415300   H   
      43   H43          1.625100   -5.321500   -1.848300   H   
      44   H44          0.825200   -4.694500   -4.108900   H   
      45   C45          0.383300    0.767700    1.360300   C.2 
      46   C46          1.787000    0.570200    1.695100   C.2 
      47   C47          1.499800   -0.869900    1.458500   C.2 
      48   O48         -0.315700    1.768100    1.327000   O.2 
      49   O49          2.202100   -2.019500    1.498900   O.2 
      50   C50          2.659100    1.542100    2.046200   C.2 
      51   C51          4.115100    1.431200    2.451800   C.2 
      52   H52          2.220400    2.508600    1.997400   H   
      53   C53          4.918200    0.114400    2.391200   C.3 
      54   C54          4.401400   -0.884900    3.445200   C.3 
      55   H55          4.482400   -0.438200    4.460000   H   
      56   H56          4.974300   -1.830600    3.443100   H   
      57   H57          3.341600   -1.130600    3.316900   H   
      58   C58          6.284100    0.628400    2.810100   C.2 
      59   C59          4.964300   -0.417500    0.943600   C.3 
      60   H60          5.578000   -1.330300    0.845600   H   
      61   H61          3.965400   -0.655600    0.550700   H   
      62   H62          5.394300    0.355700    0.270200   H   
      63   N63          4.864400    2.429800    2.859000   N.3 
      64   C64          4.554700    3.856400    3.097200   C.3 
      65   C65          3.121700    4.315900    3.149600   C.2 
      66   H66          5.121300    4.448900    2.346200   H   
      67   H67          4.953000    4.135600    4.097100   H   
      68   C68          2.642300    5.239200    2.203100   C.2 
      69   C69          1.312800    5.667400    2.248600   C.2 
      70   H70          3.295400    5.619800    1.427600   H   
      71   C71          2.255500    3.844800    4.154600   C.2 
      72   C72          0.454500    5.185000    3.239900   C.2 
      73   H73          0.947700    6.372900    1.513200   H   
      74   C74          6.178200    1.968800    3.064400   C.2 
      75   C75          7.277600    2.733600    3.476500   C.2 
      76   C76          7.530900   -0.035500    2.962500   C.2 
      77   C77          8.656300    0.732500    3.380800   C.2 
      78   C78          8.517000    2.110000    3.633900   C.2 
      79   H79          7.188400    3.792700    3.673700   H   
      80   H80          9.368600    2.699300    3.952900   H   
      81   C81          7.703100   -1.413000    2.719000   C.2 
      82   C82          9.906200    0.115400    3.540900   C.2 
      83   C83          8.956900   -2.008700    2.882700   C.2 
      84   H84          6.889100   -2.039700    2.404900   H   
      85   C85         10.052800   -1.248800    3.291200   C.2 
      86   H86         10.767600    0.691300    3.858500   H   
      87   H87          9.079000   -3.067100    2.691400   H   
      88   H88         11.019800   -1.719100    3.415300   H   
      89   C89          0.925200    4.276900    4.193100   C.2 
      90   H90         -0.575200    5.517100    3.270300   H   
      91   H91          0.258100    3.907100    4.960800   H   
      92   H92          2.610800    3.139500    4.895500   H   

@<TRIPOS>BOND
       1       1       2       1
       2       1       3       1
       3       1       4       1
       4       2       5       1
       5       2       6       1
       6       3       7       1
       7       3       8       1
       8       5       9       1
       9       5      10       1
      10       7       9       1
      11       7      11       1
      12       9      12       1
      13      11      13       1
      14      11      14       1
      15      12      15       1
      16      12      17       1
      17      13      15       1
      18      13      16       1
      19      15      27       1
      20      17      18       1
      21      17      22       1
      22      17      23       1
      23      18      19       1
      24      18      20       1
      25      18      21       1
      26      22      27       1
      27      22      29       1
      28      23      24       1
      29      23      25       1
      30      23      26       1
      31      27      28       1
      32      28      32       1
      33      28      33       1
      34      28      34       1
      35      29      30       1
      36      29      31       1
      37      30      45       1
      38      30      47       1
      39      32      35       1
      40      32      38       1
      41      35      36       1
      42      35      37       1
      43      36      41       1
      44      36      42       1
      45      38      39       1
      46      38      40       1
      47      39      41       1
      48      39      43       1
      49      41      44       1
      50      45      46       1
      51      45      48       1
      52      46      47       1
      53      46      50       1
      54      47      49       1
      55      50      51       1
      56      50      52       1
      57      51      53       1
      58      51      63       1
      59      53      54       1
      60      53      58       1
      61      53      59       1
      62      54      55       1
      63      54      56       1
      64      54      57       1
      65      58      74       1
      66      58      76       1
      67      59      60       1
      68      59      61       1
      69      59      62       1
      70      63      64       1
      71      63      74       1
      72      64      65       1
      73      64      66       1
      74      64      67       1
      75      65      68       1
      76      65      71       1
      77      68      69       1
      78      68      70       1
      79      69      72       1
      80      69      73       1
      81      71      89       1
      82      71      92       1
      83      72      89       1
      84      72      90       1
      85      74      75       1
      86      75      78       1
      87      75      79       1
      88      76      77       1
      89      76      81       1
      90      77      78       1
      91      77      82       1
      92      78      80       1
      93      81      83       1
      94      81      84       1
      95      82      85       1
      96      82      86       1
      97      83      85       1
      98      83      87       1
      99      85      88       1
     100      89      91       1

@<TRIPOS>SUBSTRUCTURE
       1            ****       1
