@<TRIPOS>MOLECULE
*****
      92     100       1
SMALL
NO_CHARGES

@<TRIPOS>ATOM
       1   C1          -6.735900   -1.089400   -0.100800   C.2 
       2   C2          -5.583600   -0.341700    0.199000   C.2 
       3   C3          -6.637600   -2.496500   -0.294800   C.2 
       4   C4          -4.355300   -1.001900    0.304000   C.2 
       5   C5          -5.387200   -3.136300   -0.183300   C.2 
       6   C6          -4.258400   -2.360500    0.121400   C.2 
       7   H7          -5.316900   -4.203300   -0.332800   H   
       8   C8          -3.003800   -0.385100    0.614900   C.3 
       9   C9          -3.064000    0.247500    2.017600   C.3 
      10   H10         -3.769300    1.105300    2.028700   H   
      11   H11         -2.087800    0.599000    2.375500   H   
      12   H12         -3.417500   -0.502200    2.759000   H   
      13   C13         -2.129000   -1.646300    0.587000   C.2 
      14   C14         -2.639300    0.598900   -0.510100   C.3 
      15   H15         -3.334800    1.465000   -0.510700   H   
      16   H16         -2.713700    0.092200   -1.497000   H   
      17   H17         -1.611400    0.974700   -0.437500   H   
      18   N18         -2.929400   -2.788400    0.274100   N.3 
      19   C19         -2.459900   -4.163900    0.129500   C.3 
      20   C20         -0.792600   -1.742800    0.837600   C.2 
      21   C21          0.184700   -0.665900    1.184700   C.2 
      22   H22         -0.354900   -2.728600    0.802000   H   
      23   C23         -1.543800   -4.300100   -1.060900   C.2 
      24   H24         -3.301300   -4.860600   -0.036500   H   
      25   H25         -1.967000   -4.485000    1.072300   H   
      26   C26         -2.002500   -3.951600   -2.342600   C.2 
      27   C27         -1.159200   -4.079300   -3.450600   C.2 
      28   H28         -3.010600   -3.580300   -2.479900   H   
      29   C29         -0.233700   -4.785900   -0.906200   C.2 
      30   C30          0.605300   -4.912200   -2.017400   C.2 
      31   H31          0.135900   -5.066200    0.072300   H   
      32   C32          0.143600   -4.558400   -3.288100   C.2 
      33   H33         -1.516000   -3.807500   -4.435600   H   
      34   H34          1.613600   -5.285500   -1.893400   H   
      35   H35          0.794800   -4.657200   -4.146900   H   
      36   C36          0.355700    0.783200    1.377700   C.2 
      37   C37          1.760300    0.594100    1.715000   C.2 
      38   C38          1.480300   -0.848100    1.485600   C.2 
      39   O39         -0.344200    1.781800    1.332600   O.2 
      40   O40          2.186000   -1.994700    1.532600   O.2 
      41   C41          2.626800    1.573800    2.057200   C.2 
      42   C42          4.084000    1.472900    2.452900   C.2 
      43   H43          2.183300    2.539500    2.006700   H   
      44   C44          4.894100    0.159100    2.409200   C.3 
      45   C45          4.427000   -0.846900    3.474700   C.3 
      46   H46          4.481600   -0.386100    4.485200   H   
      47   H47          5.074900   -1.749500    3.469100   H   
      48   H48          3.384600   -1.158700    3.339600   H   
      49   C49          6.241000    0.691400    2.806400   C.2 
      50   C50          4.977900   -0.425000    0.988500   C.3 
      51   H51          5.644600   -1.313400    0.971900   H   
      52   H52          3.994700   -0.723400    0.596100   H   
      53   H53          5.389100    0.332400    0.285900   H   
      54   N54          4.834800    2.483900    2.837900   N.3 
      55   C55          4.521300    3.910600    3.054300   C.3 
      56   C56          3.084200    4.340900    3.176600   C.2 
      57   H57          5.045700    4.495500    2.267400   H   
      58   H58          4.960300    4.216500    4.028900   H   
      59   C59          2.537800    5.250500    2.254000   C.2 
      60   C60          1.203500    5.650900    2.367800   C.2 
      61   H61          3.142400    5.642400    1.445500   H   
      62   C62          2.281200    3.853100    4.224500   C.2 
      63   C63          0.408100    5.153500    3.403500   C.2 
      64   H64          0.785900    6.346800    1.651600   H   
      65   C65          6.149900    2.027300    3.038600   C.2 
      66   C66          7.267300    2.780800    3.428300   C.2 
      67   C67          7.451400    0.004000    2.947100   C.2 
      68   C68          8.596900    0.724100    3.338400   C.2 
      69   C69          8.503400    2.124500    3.581200   C.2 
      70   H70          7.188300    3.844600    3.609400   H   
      71   C71          0.946400    4.257500    4.331900   C.2 
      72   H72         -0.625200    5.464500    3.487600   H   
      73   H73          0.328500    3.875700    5.134100   H   
      74   H74          2.689500    3.157400    4.947000   H   
      75   H75         -5.640300    0.729800    0.347800   H   
      76   H76          7.499700   -1.061300    2.757700   H   
      77   C77         -7.984400   -0.459200   -0.211700   C.2 
      78   C78         -7.792300   -3.234900   -0.596400   C.2 
      79   C79         -9.124500   -1.209900   -0.511700   C.2 
      80   H80         -8.075500    0.610700   -0.066200   H   
      81   C81         -9.029000   -2.591300   -0.703700   C.2 
      82   H82         -7.736400   -4.306200   -0.748100   H   
      83   H83         -9.916700   -3.165100   -0.936200   H   
      84   H84        -10.085700   -0.719300   -0.596000   H   
      85   C85          9.831500    0.076000    3.492200   C.2 
      86   C86          9.646000    2.838200    3.972600   C.2 
      87   C87         10.868300    2.176900    4.122100   C.2 
      88   H88          9.591200    3.903700    4.162300   H   
      89   C89         10.960900    0.802400    3.882700   C.2 
      90   H90          9.920500   -0.988500    3.310900   H   
      91   H91         11.911600    0.298600    4.000600   H   
      92   H92         11.747100    2.731600    4.424800   H   

@<TRIPOS>BOND
       1       1       2       1
       2       1       3       1
       3       1      77       1
       4       2       4       1
       5       2      75       1
       6       3       5       1
       7       3      78       1
       8       4       6       1
       9       4       8       1
      10       5       6       1
      11       5       7       1
      12       6      18       1
      13       8       9       1
      14       8      13       1
      15       8      14       1
      16       9      10       1
      17       9      11       1
      18       9      12       1
      19      13      18       1
      20      13      20       1
      21      14      15       1
      22      14      16       1
      23      14      17       1
      24      18      19       1
      25      19      23       1
      26      19      24       1
      27      19      25       1
      28      20      21       1
      29      20      22       1
      30      21      36       1
      31      21      38       1
      32      23      26       1
      33      23      29       1
      34      26      27       1
      35      26      28       1
      36      27      32       1
      37      27      33       1
      38      29      30       1
      39      29      31       1
      40      30      32       1
      41      30      34       1
      42      32      35       1
      43      36      37       1
      44      36      39       1
      45      37      38       1
      46      37      41       1
      47      38      40       1
      48      41      42       1
      49      41      43       1
      50      42      44       1
      51      42      54       1
      52      44      45       1
      53      44      49       1
      54      44      50       1
      55      45      46       1
      56      45      47       1
      57      45      48       1
      58      49      65       1
      59      49      67       1
      60      50      51       1
      61      50      52       1
      62      50      53       1
      63      54      55       1
      64      54      65       1
      65      55      56       1
      66      55      57       1
      67      55      58       1
      68      56      59       1
      69      56      62       1
      70      59      60       1
      71      59      61       1
      72      60      63       1
      73      60      64       1
      74      62      71       1
      75      62      74       1
      76      63      71       1
      77      63      72       1
      78      65      66       1
      79      66      69       1
      80      66      70       1
      81      67      68       1
      82      67      76       1
      83      68      69       1
      84      68      85       1
      85      69      86       1
      86      71      73       1
      87      77      79       1
      88      77      80       1
      89      78      81       1
      90      78      82       1
      91      79      81       1
      92      79      84       1
      93      81      83       1
      94      85      89       1
      95      85      90       1
      96      86      87       1
      97      86      88       1
      98      87      89       1
      99      87      92       1
     100      89      91       1

@<TRIPOS>SUBSTRUCTURE
       1            ****       1
