@<TRIPOS>MOLECULE
stilbenen2_0_mols1_cent_min
92 94 0 0 0
SMALL
GASTEIGER

@<TRIPOS>ATOM
1 CA1 -6.910153 2.816489 -0.173572 CA1 1 LIG1 907
2 CA2 -7.799809 1.732568 -0.362828 CA2 1 LIG1 908
3 CA3 -7.218472 0.474593 -0.648646 CA3 1 LIG1 907
4 CA4 -5.819353 0.308850 -0.709121 CA4 1 LIG1 907
5 HA5 -7.832472 -0.391929 -0.830399 HA5 1 LIG1 909
6 CA6 -4.924105 1.384728 -0.504258 CA6 1 LIG1 910
7 HA7 -5.425523 -0.673453 -0.922966 HA7 1 LIG1 909
8 CA8 -5.516854 2.634947 -0.239321 CA8 1 LIG1 907
9 HA9 -7.252732 3.811866 0.050736 HA9 1 LIG1 909
10 HA10 -4.873394 3.486167 -0.074202 HA10 1 LIG1 909
11 CA11 -0.612287 1.145988 -0.582526 CA11 1 LIG1 907
12 CA12 -1.450915 0.006949 -0.602771 CA12 1 LIG1 910
13 CA13 -0.782605 -1.233965 -0.527091 CA13 1 LIG1 907
14 CA14 0.621160 -1.332588 -0.422416 CA14 1 LIG1 907
15 HA15 -1.366696 -2.141461 -0.537704 HA15 1 LIG1 909
16 CA16 1.454034 -0.189682 -0.387834 CA16 1 LIG1 910
17 HA17 1.063605 -2.314941 -0.355705 HA17 1 LIG1 909
18 CA18 0.787690 1.047796 -0.478727 CA18 1 LIG1 907
19 HA19 -1.046888 2.132186 -0.640154 HA19 1 LIG1 909
20 HA20 1.371079 1.955765 -0.457941 HA20 1 LIG1 909
21 CA21 4.947590 -1.372023 0.189064 CA21 1 LIG1 910
22 CA22 5.727696 -2.539423 0.057870 CA22 1 LIG1 907
23 CA23 5.638585 -0.217419 0.626348 CA23 1 LIG1 907
24 CA24 7.106220 -2.564610 0.346858 CA24 1 LIG1 907
25 HA25 5.248594 -3.445352 -0.281598 HA25 1 LIG1 909
26 CA26 7.014304 -0.225786 0.921259 CA26 1 LIG1 907
27 CA27 7.782089 -1.407485 0.798035 CA27 1 LIG1 908
28 HA28 5.098780 0.709822 0.749415 HA28 1 LIG1 909
29 HA29 7.629248 -3.495680 0.206226 HA29 1 LIG1 909
30 HA30 7.439485 0.701667 1.265350 HA30 1 LIG1 909
31 CM31 -3.487392 1.275907 -0.540984 CM31 1 LIG1 911
32 CM32 -2.892859 0.074247 -0.665325 CM32 1 LIG1 911
33 HC33 -2.855801 2.147942 -0.457476 HC33 1 LIG1 912
34 HC34 -3.507075 -0.803039 -0.804545 HC34 1 LIG1 912
35 CM35 2.889277 -0.218706 -0.248947 CM35 1 LIG1 911
36 CM36 3.538553 -1.390329 -0.122112 CM36 1 LIG1 911
37 HC37 3.476928 0.686705 -0.284673 HC37 1 LIG1 912
38 HC38 2.991492 -2.310217 -0.266170 HC38 1 LIG1 912
39 NT39 -9.158175 1.893614 -0.333431 NT39 1 LIG1 913
40 NT40 9.124317 -1.433145 1.056111 NT40 1 LIG1 913
41 CT41 -10.008756 0.785463 0.119488 CT41 1 LIG1 914
42 CT42 -10.674825 0.068196 -1.069421 CT42 1 LIG1 915
43 HC43 -10.766420 1.142040 0.817541 HC43 1 LIG1 916
44 HC44 -9.422826 0.073871 0.703073 HC44 1 LIG1 916
45 CT45 -11.605868 -1.064429 -0.613725 CT45 1 LIG1 915
46 HC46 -9.912065 -0.331953 -1.737151 HC46 1 LIG1 917
47 HC47 -11.246550 0.779736 -1.663341 HC47 1 LIG1 917
48 CT48 -12.251750 -1.810061 -1.787976 CT48 1 LIG1 918
49 HC49 -12.387903 -0.654719 0.026790 HC49 1 LIG1 917
50 HC50 -11.047284 -1.773350 -0.001449 HC50 1 LIG1 917
51 HC51 -12.833188 -1.132697 -2.414322 HC51 1 LIG1 917
52 HC52 -12.922292 -2.591814 -1.430108 HC52 1 LIG1 917
53 HC53 -11.497225 -2.283862 -2.417049 HC53 1 LIG1 917
54 CT54 -9.783108 3.204368 -0.091479 CT54 1 LIG1 914
55 CT55 -11.185250 3.382168 -0.706528 CT55 1 LIG1 915
56 HC56 -9.177629 3.983511 -0.550728 HC56 1 LIG1 916
57 HC57 -9.800679 3.407498 0.980564 HC57 1 LIG1 916
58 CT58 -11.716543 4.808215 -0.498082 CT58 1 LIG1 915
59 HC59 -11.896525 2.679546 -0.274312 HC59 1 LIG1 917
60 HC60 -11.138611 3.170989 -1.775811 HC60 1 LIG1 917
61 CT61 -13.125643 5.006895 -1.068016 CT61 1 LIG1 918
62 HC62 -11.035892 5.522867 -0.963358 HC62 1 LIG1 917
63 HC63 -11.724640 5.040939 0.567496 HC63 1 LIG1 917
64 HC64 -13.144951 4.824672 -2.142771 HC64 1 LIG1 917
65 HC65 -13.472984 6.026269 -0.898005 HC65 1 LIG1 917
66 HC66 -13.840164 4.329849 -0.598983 HC66 1 LIG1 917
67 CT67 9.863911 -0.219896 1.437354 CT67 1 LIG1 914
68 CT68 11.360777 -0.233618 1.070595 CT68 1 LIG1 915
69 HC69 9.726229 -0.029257 2.502843 HC69 1 LIG1 916
70 HC70 9.448801 0.635743 0.906287 HC70 1 LIG1 916
71 CT71 12.035068 1.108864 1.388429 CT71 1 LIG1 915
72 HC72 11.466860 -0.442944 0.005483 HC72 1 LIG1 917
73 HC73 11.889347 -1.023070 1.603362 HC73 1 LIG1 917
74 CT74 13.522487 1.129696 1.017877 CT74 1 LIG1 918
75 HC75 11.924473 1.329138 2.450951 HC75 1 LIG1 917
76 HC76 11.521670 1.909263 0.853995 HC76 1 LIG1 917
77 HC77 14.073597 0.359081 1.557218 HC77 1 LIG1 917
78 HC78 13.970351 2.092863 1.264077 HC78 1 LIG1 917
79 HC79 13.665084 0.960117 -0.049915 HC79 1 LIG1 917
80 CT80 9.726409 -2.648649 1.618127 CT80 1 LIG1 914
81 CT81 10.487505 -3.448716 0.544949 CT81 1 LIG1 915
82 HC82 8.956755 -3.274488 2.072401 HC82 1 LIG1 916
83 HC83 10.393112 -2.399680 2.444147 HC83 1 LIG1 916
84 CT84 11.158122 -4.701159 1.126405 CT84 1 LIG1 915
85 HC85 11.246442 -2.822315 0.078671 HC85 1 LIG1 917
86 HC86 9.808507 -3.739505 -0.256276 HC86 1 LIG1 917
87 CT87 11.931816 -5.499531 0.070022 CT87 1 LIG1 918
88 HC88 10.400728 -5.340955 1.581050 HC88 1 LIG1 917
89 HC89 11.838067 -4.411752 1.928885 HC89 1 LIG1 917
90 HC90 11.271050 -5.841339 -0.727309 HC90 1 LIG1 917
91 HC91 12.401193 -6.378659 0.512000 HC91 1 LIG1 917
92 HC92 12.718159 -4.895549 -0.383901 HC92 1 LIG1 917
@<TRIPOS>BOND
1 1 2 1
2 1 8 1
3 1 9 1
4 2 3 1
5 2 39 1
6 3 4 1
7 3 5 1
8 4 6 1
9 4 7 1
10 6 8 1
11 6 31 1
12 8 10 1
13 11 12 1
14 11 18 1
15 11 19 1
16 12 13 1
17 12 32 1
18 13 14 1
19 13 15 1
20 14 16 1
21 14 17 1
22 16 18 1
23 16 35 1
24 18 20 1
25 21 22 1
26 21 23 1
27 21 36 1
28 22 24 1
29 22 25 1
30 23 26 1
31 23 28 1
32 24 27 1
33 24 29 1
34 26 27 1
35 26 30 1
36 27 40 1
37 31 32 1
38 31 33 1
39 32 34 1
40 35 36 1
41 35 37 1
42 36 38 1
43 39 41 1
44 39 54 1
45 40 67 1
46 40 80 1
47 41 42 1
48 41 43 1
49 41 44 1
50 42 45 1
51 42 46 1
52 42 47 1
53 45 48 1
54 45 49 1
55 45 50 1
56 48 51 1
57 48 52 1
58 48 53 1
59 54 55 1
60 54 56 1
61 54 57 1
62 55 58 1
63 55 59 1
64 55 60 1
65 58 61 1
66 58 62 1
67 58 63 1
68 61 64 1
69 61 65 1
70 61 66 1
71 67 68 1
72 67 69 1
73 67 70 1
74 68 71 1
75 68 72 1
76 68 73 1
77 71 74 1
78 71 75 1
79 71 76 1
80 74 77 1
81 74 78 1
82 74 79 1
83 80 81 1
84 80 82 1
85 80 83 1
86 81 84 1
87 81 85 1
88 81 86 1
89 84 87 1
90 84 88 1
91 84 89 1
92 87 90 1
93 87 91 1
94 87 92 1
