@<TRIPOS>MOLECULE
*****
 92 94 0 0 0
SMALL
GASTEIGER

@<TRIPOS>ATOM
      1 C          -6.6203    4.4177   -0.0241 C.ar    1  LIG1       -0.0401
      2 C          -7.4520    3.2718   -0.1261 C.ar    1  LIG1        0.0297
      3 C          -6.7985    2.0079   -0.1113 C.ar    1  LIG1       -0.0401
      4 C          -5.4001    1.8998   -0.0013 C.ar    1  LIG1       -0.0528
      5 H          -7.3541    1.0859   -0.1838 H       1  LIG1        0.0636
      6 C          -4.5880    3.0467    0.0970 C.ar    1  LIG1       -0.0249
      7 H          -4.9717    0.9102    0.0035 H       1  LIG1        0.0624
      8 C          -5.2230    4.3015    0.0833 C.ar    1  LIG1       -0.0528
      9 H          -7.0327    5.4153   -0.0276 H       1  LIG1        0.0636
     10 H          -4.6314    5.2058    0.1567 H       1  LIG1        0.0624
     11 C          -0.0006    2.9487    0.4386 C.ar    1  LIG1       -0.0540
     12 C          -0.8209    1.8022    0.3659 C.ar    1  LIG1       -0.0250
     13 C          -0.1922    0.5410    0.4019 C.ar    1  LIG1       -0.0540
     14 C           1.2064    0.4201    0.5073 C.ar    1  LIG1       -0.0540
     15 H          -0.7896   -0.3609    0.3485 H       1  LIG1        0.0624
     16 C           2.0269    1.5662    0.5799 C.ar    1  LIG1       -0.0250
     17 H           1.6276   -0.5726    0.5306 H       1  LIG1        0.0624
     18 C           1.3988    2.8278    0.5435 C.ar    1  LIG1       -0.0540
     19 H          -0.4231    3.9410    0.4148 H       1  LIG1        0.0624
     20 H           1.9974    3.7291    0.5968 H       1  LIG1        0.0624
     21 C           5.7823    0.3032    0.8561 C.ar    1  LIG1       -0.0249
     22 C           6.4021   -0.9581    0.8898 C.ar    1  LIG1       -0.0528
     23 C           6.6056    1.4430    0.9341 C.ar    1  LIG1       -0.0528
     24 C           7.7958   -1.0875    0.9980 C.ar    1  LIG1       -0.0401
     25 H           5.8011   -1.8570    0.8322 H       1  LIG1        0.0624
     26 C           8.0024    1.3218    1.0434 C.ar    1  LIG1       -0.0401
     27 C           8.6400    0.0495    1.0790 C.ar    1  LIG1        0.0297
     28 H           6.1878    2.4370    0.9128 H       1  LIG1        0.0624
     29 H           8.1951   -2.0905    1.0183 H       1  LIG1        0.0636
     30 H           8.5687    2.2381    1.0987 H       1  LIG1        0.0636
     31 C          -3.0773    2.9965    0.2141 C.2     1  LIG1       -0.0540
     32 C          -2.3315    1.8567    0.2507 C.2     1  LIG1       -0.0540
     33 H          -2.5722    3.9513    0.2721 H       1  LIG1        0.0624
     34 H          -2.8373    0.9024    0.1955 H       1  LIG1        0.0624
     35 C           3.5367    1.5082    0.6946 C.2     1  LIG1       -0.0540
     36 C           4.2745    0.3644    0.7397 C.2     1  LIG1       -0.0540
     37 H           4.0481    2.4601    0.7432 H       1  LIG1        0.0624
     38 H           3.7644   -0.5877    0.6908 H       1  LIG1        0.0624
     39 N          -8.9145    3.3842   -0.2428 N.pl3   1  LIG1       -0.3299
     40 N          10.0999   -0.0781    1.1950 N.pl3   1  LIG1       -0.3299
     41 C          -9.6748    2.1111   -0.3677 C.3     1  LIG1        0.0122
     42 C         -11.2115    2.0659   -0.5045 C.3     1  LIG1       -0.0375
     43 H          -9.4471    1.5011    0.5338 H       1  LIG1        0.0464
     44 H          -9.2883    1.5861   -1.2688 H       1  LIG1        0.0464
     45 C         -11.7121    0.6165   -0.6248 C.3     1  LIG1       -0.0545
     46 H         -11.5314    2.5749   -1.4322 H       1  LIG1        0.0280
     47 H         -11.6911    2.4795    0.4018 H       1  LIG1        0.0280
     48 C         -13.2347    0.5591   -0.7580 C.3     1  LIG1       -0.0652
     49 H         -11.4141    0.0397    0.2776 H       1  LIG1        0.0263
     50 H         -11.2605    0.1368   -1.5203 H       1  LIG1        0.0263
     51 H         -13.7211    1.0071    0.1348 H       1  LIG1        0.0230
     52 H         -13.5622   -0.4988   -0.8442 H       1  LIG1        0.0230
     53 H         -13.5677    1.1064   -1.6657 H       1  LIG1        0.0230
     54 C          -9.4957    4.7561   -0.2269 C.3     1  LIG1        0.0122
     55 C         -11.0166    5.0005   -0.3441 C.3     1  LIG1       -0.0375
     56 H          -9.0427    5.3215   -1.0706 H       1  LIG1        0.0464
     57 H          -9.1920    5.2350    0.7299 H       1  LIG1        0.0464
     58 C         -11.3633    6.4984   -0.2938 C.3     1  LIG1       -0.0545
     59 H         -11.5433    4.5428    0.5128 H       1  LIG1        0.0280
     60 H         -11.3839    4.6390   -1.3220 H       1  LIG1        0.0280
     61 C         -12.8732    6.7222   -0.4196 C.3     1  LIG1       -0.0652
     62 H         -10.8565    7.0320   -1.1268 H       1  LIG1        0.0263
     63 H         -11.0200    6.9322    0.6704 H       1  LIG1        0.0263
     64 H         -13.2478    6.3228   -1.3865 H       1  LIG1        0.0230
     65 H         -13.0983    7.8091   -0.3782 H       1  LIG1        0.0230
     66 H         -13.4138    6.2197    0.4111 H       1  LIG1        0.0230
     67 C          10.8739    1.1821    1.2967 C.3     1  LIG1        0.0122
     68 C          12.4083    1.2261    1.4541 C.3     1  LIG1       -0.0375
     69 H          10.4831    1.7276    2.1842 H       1  LIG1        0.0464
     70 H          10.6566    1.7734    0.3799 H       1  LIG1        0.0464
     71 C          12.8649    2.6979    1.5447 C.3     1  LIG1       -0.0545
     72 H          12.9083    0.7841    0.5711 H       1  LIG1        0.0280
     73 H          12.7179    0.7321    2.3957 H       1  LIG1        0.0280
     74 C          14.3762    2.8403    1.7061 C.3     1  LIG1       -0.0652
     75 H          12.3764    3.1861    2.4165 H       1  LIG1        0.0263
     76 H          12.5615    3.2400    0.6222 H       1  LIG1        0.0263
     77 H          14.7181    2.3433    2.6381 H       1  LIG1        0.0230
     78 H          14.6365    3.9197    1.7673 H       1  LIG1        0.0230
     79 H          14.9052    2.4002    0.8349 H       1  LIG1        0.0230
     80 C          10.6571   -1.4560    1.2010 C.3     1  LIG1        0.0122
     81 C          12.1710   -1.7473    1.2897 C.3     1  LIG1       -0.0375
     82 H          10.3273   -1.9434    0.2572 H       1  LIG1        0.0464
     83 H          10.2024   -1.9911    2.0633 H       1  LIG1        0.0464
     84 C          12.4078   -3.2727    1.2610 C.3     1  LIG1       -0.0545
     85 H          12.5865   -1.3760    2.2457 H       1  LIG1        0.0280
     86 H          12.6991   -1.3213    0.4145 H       1  LIG1        0.0280
     87 C          13.8888   -3.6396    1.3410 C.3     1  LIG1       -0.0652
     88 H          11.9959   -3.6974    0.3194 H       1  LIG1        0.0263
     89 H          11.8852   -3.7479    2.1200 H       1  LIG1        0.0263
     90 H          14.4440   -3.2152    0.4781 H       1  LIG1        0.0230
     91 H          13.9953   -4.7462    1.3164 H       1  LIG1        0.0230
     92 H          14.3342   -3.2658    2.2869 H       1  LIG1        0.0230
@<TRIPOS>BOND
     1    53    48    1
     2    50    45    1
     3    46    42    1
     4    64    61    1
     5    60    55    1
     6    44    41    1
     7    62    58    1
     8    56    54    1
     9    52    48    1
    10    48    45    1
    11    48    51    1
    12    45    42    1
    13    45    49    1
    14    42    41    1
    15    42    47    1
    16    61    65    1
    17    61    58    1
    18    61    66    1
    19    41    39    1
    20    41    43    1
    21    55    58    1
    22    55    54    1
    23    55    59    1
    24    58    63    1
    25    39    54    1
    26    39     2    1
    27    54    57    1
    28     5     3    1
    29     2     3   ar
    30     2     1   ar
    31     3     4   ar
    32     9     1    1
    33     1     8   ar
    34     4     7    1
    35     4     6   ar
    36     8     6   ar
    37     8    10    1
    38     6    31    1
    39    34    32    1
    40    31    32    2
    41    31    33    1
    42    32    12    1
    43    82    80    1
    44    88    84    1
    45    15    13    1
    46    12    13   ar
    47    12    11   ar
    48    70    67    1
    49    13    14   ar
    50    86    81    1
    51    19    11    1
    52    11    18   ar
    53    90    87    1
    54    14    17    1
    55    14    16   ar
    56    18    16   ar
    57    18    20    1
    58    72    68    1
    59    16    35    1
    60    76    71    1
    61    38    36    1
    62    35    36    2
    63    35    37    1
    64    36    21    1
    65    25    22    1
    66    79    74    1
    67    21    22   ar
    68    21    23   ar
    69    22    24   ar
    70    28    23    1
    71    23    26   ar
    72    24    29    1
    73    24    27   ar
    74    26    27   ar
    75    26    30    1
    76    27    40    1
    77    40    80    1
    78    40    67    1
    79    80    81    1
    80    80    83    1
    81    84    81    1
    82    84    87    1
    83    84    89    1
    84    81    85    1
    85    67    68    1
    86    67    69    1
    87    91    87    1
    88    87    92    1
    89    68    71    1
    90    68    73    1
    91    71    74    1
    92    71    75    1
    93    74    78    1
    94    74    77    1
