@<TRIPOS>MOLECULE
*****
      92      94       1
SMALL
NO_CHARGES

@<TRIPOS>ATOM
       1   C1          -6.620300    4.417700   -0.024100   C.2 
       2   C2          -7.452000    3.271800   -0.126100   C.2 
       3   C3          -6.798500    2.007900   -0.111300   C.2 
       4   C4          -5.400100    1.899800   -0.001300   C.2 
       5   H5          -7.354100    1.085900   -0.183800   H   
       6   C6          -4.588000    3.046700    0.097000   C.2 
       7   H7          -4.971700    0.910200    0.003500   H   
       8   C8          -5.223000    4.301500    0.083300   C.2 
       9   H9          -7.032700    5.415300   -0.027600   H   
      10   H10         -4.631400    5.205800    0.156700   H   
      11   C11         -0.000600    2.948700    0.438600   C.2 
      12   C12         -0.820900    1.802200    0.365900   C.2 
      13   C13         -0.192200    0.541000    0.401900   C.2 
      14   C14          1.206400    0.420100    0.507300   C.2 
      15   H15         -0.789600   -0.360900    0.348500   H   
      16   C16          2.026900    1.566200    0.579900   C.2 
      17   H17          1.627600   -0.572600    0.530600   H   
      18   C18          1.398800    2.827800    0.543500   C.2 
      19   H19         -0.423100    3.941000    0.414800   H   
      20   H20          1.997400    3.729100    0.596800   H   
      21   C21          5.782300    0.303200    0.856100   C.2 
      22   C22          6.402100   -0.958100    0.889800   C.2 
      23   C23          6.605600    1.443000    0.934100   C.2 
      24   C24          7.795800   -1.087500    0.998000   C.2 
      25   H25          5.801100   -1.857000    0.832200   H   
      26   C26          8.002400    1.321800    1.043400   C.2 
      27   C27          8.640000    0.049500    1.079000   C.2 
      28   H28          6.187800    2.437000    0.912800   H   
      29   H29          8.195100   -2.090500    1.018300   H   
      30   H30          8.568700    2.238100    1.098700   H   
      31   C31         -3.077300    2.996500    0.214100   C.2 
      32   C32         -2.331500    1.856700    0.250700   C.2 
      33   H33         -2.572200    3.951300    0.272100   H   
      34   H34         -2.837300    0.902400    0.195500   H   
      35   C35          3.536700    1.508200    0.694600   C.2 
      36   C36          4.274500    0.364400    0.739700   C.2 
      37   H37          4.048100    2.460100    0.743200   H   
      38   H38          3.764400   -0.587700    0.690800   H   
      39   N39         -8.914500    3.384200   -0.242800   N.3 
      40   N40         10.099900   -0.078100    1.195000   N.3 
      41   C41         -9.674800    2.111100   -0.367700   C.3 
      42   C42        -11.211500    2.065900   -0.504500   C.3 
      43   H43         -9.447100    1.501100    0.533800   H   
      44   H44         -9.288300    1.586100   -1.268800   H   
      45   C45        -11.712100    0.616500   -0.624800   C.3 
      46   H46        -11.531400    2.574900   -1.432200   H   
      47   H47        -11.691100    2.479500    0.401800   H   
      48   C48        -13.234700    0.559100   -0.758000   C.3 
      49   H49        -11.414100    0.039700    0.277600   H   
      50   H50        -11.260500    0.136800   -1.520300   H   
      51   H51        -13.721100    1.007100    0.134800   H   
      52   H52        -13.562200   -0.498800   -0.844200   H   
      53   H53        -13.567700    1.106400   -1.665700   H   
      54   C54         -9.495700    4.756100   -0.226900   C.3 
      55   C55        -11.016600    5.000500   -0.344100   C.3 
      56   H56         -9.042700    5.321500   -1.070600   H   
      57   H57         -9.192000    5.235000    0.729900   H   
      58   C58        -11.363300    6.498400   -0.293800   C.3 
      59   H59        -11.543300    4.542800    0.512800   H   
      60   H60        -11.383900    4.639000   -1.322000   H   
      61   C61        -12.873200    6.722200   -0.419600   C.3 
      62   H62        -10.856500    7.032000   -1.126800   H   
      63   H63        -11.020000    6.932200    0.670400   H   
      64   H64        -13.247800    6.322800   -1.386500   H   
      65   H65        -13.098300    7.809100   -0.378200   H   
      66   H66        -13.413800    6.219700    0.411100   H   
      67   C67         10.873900    1.182100    1.296700   C.3 
      68   C68         12.408300    1.226100    1.454100   C.3 
      69   H69         10.483100    1.727600    2.184200   H   
      70   H70         10.656600    1.773400    0.379900   H   
      71   C71         12.864900    2.697900    1.544700   C.3 
      72   H72         12.908300    0.784100    0.571100   H   
      73   H73         12.717900    0.732100    2.395700   H   
      74   C74         14.376200    2.840300    1.706100   C.3 
      75   H75         12.376400    3.186100    2.416500   H   
      76   H76         12.561500    3.240000    0.622200   H   
      77   H77         14.718100    2.343300    2.638100   H   
      78   H78         14.636500    3.919700    1.767300   H   
      79   H79         14.905200    2.400200    0.834900   H   
      80   C80         10.657100   -1.456000    1.201000   C.3 
      81   C81         12.171000   -1.747300    1.289700   C.3 
      82   H82         10.327300   -1.943400    0.257200   H   
      83   H83         10.202400   -1.991100    2.063300   H   
      84   C84         12.407800   -3.272700    1.261000   C.3 
      85   H85         12.586500   -1.376000    2.245700   H   
      86   H86         12.699100   -1.321300    0.414500   H   
      87   C87         13.888800   -3.639600    1.341000   C.3 
      88   H88         11.995900   -3.697400    0.319400   H   
      89   H89         11.885200   -3.747900    2.120000   H   
      90   H90         14.444000   -3.215200    0.478100   H   
      91   H91         13.995300   -4.746200    1.316400   H   
      92   H92         14.334200   -3.265800    2.286900   H   

@<TRIPOS>BOND
       1       1       2       1
       2       1       8       1
       3       1       9       1
       4       2       3       1
       5       2      39       1
       6       3       4       1
       7       3       5       1
       8       4       6       1
       9       4       7       1
      10       6       8       1
      11       6      31       1
      12       8      10       1
      13      11      12       1
      14      11      18       1
      15      11      19       1
      16      12      13       1
      17      12      32       1
      18      13      14       1
      19      13      15       1
      20      14      16       1
      21      14      17       1
      22      16      18       1
      23      16      35       1
      24      18      20       1
      25      21      22       1
      26      21      23       1
      27      21      36       1
      28      22      24       1
      29      22      25       1
      30      23      26       1
      31      23      28       1
      32      24      27       1
      33      24      29       1
      34      26      27       1
      35      26      30       1
      36      27      40       1
      37      31      32       1
      38      31      33       1
      39      32      34       1
      40      35      36       1
      41      35      37       1
      42      36      38       1
      43      39      41       1
      44      39      54       1
      45      40      67       1
      46      40      80       1
      47      41      42       1
      48      41      43       1
      49      41      44       1
      50      42      45       1
      51      42      46       1
      52      42      47       1
      53      45      48       1
      54      45      49       1
      55      45      50       1
      56      48      51       1
      57      48      52       1
      58      48      53       1
      59      54      55       1
      60      54      56       1
      61      54      57       1
      62      55      58       1
      63      55      59       1
      64      55      60       1
      65      58      61       1
      66      58      62       1
      67      58      63       1
      68      61      64       1
      69      61      65       1
      70      61      66       1
      71      67      68       1
      72      67      69       1
      73      67      70       1
      74      68      71       1
      75      68      72       1
      76      68      73       1
      77      71      74       1
      78      71      75       1
      79      71      76       1
      80      74      77       1
      81      74      78       1
      82      74      79       1
      83      80      81       1
      84      80      82       1
      85      80      83       1
      86      81      84       1
      87      81      85       1
      88      81      86       1
      89      84      87       1
      90      84      88       1
      91      84      89       1
      92      87      90       1
      93      87      91       1
      94      87      92       1

@<TRIPOS>SUBSTRUCTURE
       1            ****       1
